geometry optimzed in LAMMPS
_audit_creation_date              2020-11-30 
_audit_creation_method            'lammps2cif' 
_symmetry_space_group_name_H-M    'P1' 
_symmetry_Int_Tables_number       1 
_symmetry_cell_setting            triclinic 
loop_ 
_symmetry_equiv_pos_as_xyz 
  x,y,z 
_cell_length_a                    57.73381178982154 
_cell_length_b                    57.68455199141036 
_cell_length_c                    42.318713588288404 
_cell_angle_alpha                 90.0519075137494 
_cell_angle_beta                  90.18241637989456 
_cell_angle_gamma                 90.0423639416498 
loop_ 
_atom_site_label 
_atom_site_type_symbol 
_atom_site_fract_x 
_atom_site_fract_y 
_atom_site_fract_z 
_atom_site_charge 
O1          O  0.76543098  0.64512332  0.41160898    -0.57490
C2          C  0.77782992  0.65111424  0.31362915     0.75140
O3          O  0.79777598  0.70735770  0.36614860    -0.58640
C4          C  0.77242899  0.65685233  0.43523634     0.75110
C5          C  0.83567281  0.64425366  0.39737888     0.77510
Cd6        Cd  0.79309918  0.66495142  0.37597218     1.37460
O7          O  0.76983511  0.64154650  0.33828845    -0.57480
O8          O  0.81899234  0.63255174  0.38621971    -0.56290
C9          C  0.77693501  0.71200270  0.37357587     0.77470
O10         O  0.83432309  0.66612190  0.39458062    -0.58670
O11         O  0.79420445  0.66544737  0.31793443    -0.57120
O12         O  0.78838220  0.67144991  0.43082973    -0.57110
O13         O  0.76444693  0.69500448  0.38148426    -0.56280
O14         O  0.89682570  0.51661221  0.45638557    -0.57490
C15         C  0.89942589  0.52822649  0.05849997     0.75140
O16         O  0.95744324  0.55105976  0.50143843    -0.58640
C17         C  0.91369612  0.51864818  0.43731248     0.75110
C18         C  0.89249300  0.58198840  0.46949746     0.77510
Cd19       Cd  0.91519126  0.54172878  0.49650841     1.37460
O20         O  0.89790559  0.51446617  0.03520860    -0.57480
O21         O  0.88311022  0.56218793  0.47098809    -0.56290
C22         C  0.96318012  0.52983178  0.00437162     0.77470
O23         O  0.91198275  0.58426380  0.48332618    -0.58670
O24         O  0.90513123  0.54887704  0.05191882    -0.57120
O25         O  0.93097287  0.52993401  0.44713343    -0.57110
O26         O  0.94686599  0.51527145  0.00596305    -0.56280
O27         O  0.74924096  0.64884573  0.08636336    -0.57490
C28         C  0.73862202  0.65187589  0.18743954     0.75140
O29         O  0.71743730  0.70879473  0.13453884    -0.58640
C30         C  0.74290740  0.66267155  0.06458587     0.75110
C31         C  0.68184519  0.64284298  0.10231535     0.77510
Cd32       Cd  0.72283783  0.66628137  0.12562059     1.37470
O33         O  0.74718307  0.64337718  0.16239025    -0.57480
O34         O  0.70044971  0.63233586  0.10894141    -0.56290
C35         C  0.73853276  0.71353885  0.12840438     0.77470
O36         O  0.68065389  0.66404735  0.11044323    -0.58670
O37         O  0.72153743  0.66541505  0.18369579    -0.57120
O38         O  0.72825950  0.67773152  0.07261445    -0.57110
O39         O  0.75152144  0.69651325  0.12215162    -0.56280
O40         O  0.62337999  0.51513728  0.03504054    -0.57490
C41         C  0.61590712  0.53137633  0.43738893     0.75140
O42         O  0.56029397  0.54741699  0.48886366    -0.58640
C43         C  0.60999808  0.51993853  0.05798946     0.75110
C44         C  0.62351035  0.58351993  0.02720580     0.77510
Cd45       Cd  0.60262292  0.54272808  0.50056528     1.37460
O46         O  0.62189916  0.51851481  0.46030926    -0.57480
O47         O  0.63529644  0.56687878  0.01622770    -0.56290
C48         C  0.55523772  0.52661697  0.49614845     0.77470
O49         O  0.60177670  0.58288919  0.02243869    -0.58670
O50         O  0.60664040  0.55063316  0.44432415    -0.57120
O51         O  0.59412170  0.53461979  0.05340417    -0.57110
O52         O  0.57213912  0.51420705  0.50456267    -0.56280
O53         O  0.74810467  0.37011453  0.16401986    -0.57490
C54         C  0.73762369  0.36551302  0.06378432     0.75140
O55         O  0.71521308  0.30980568  0.12260490    -0.58640
C56         C  0.74022648  0.35801917  0.18671656     0.75110
C57         C  0.68413571  0.37995681  0.14707091     0.77510
Cd58       Cd  0.72197709  0.35228991  0.12548189     1.37470
O59         O  0.74674622  0.37373918  0.08871091    -0.57480
O60         O  0.70226039  0.38855423  0.13515539    -0.56290
C61         C  0.73672781  0.30498190  0.12486981     0.77470
O62         O  0.68099330  0.35831750  0.14279661    -0.58670
O63         O  0.72022965  0.35231502  0.06766647    -0.57120
O64         O  0.72519366  0.34287135  0.18004141    -0.57110
O65         O  0.75061202  0.32197470  0.12560906    -0.56280
O66         O  0.62374480  0.50346866  0.28682572    -0.57490
C67         C  0.60897954  0.49241154  0.18739639     0.75140
O68         O  0.60760539  0.43512445  0.23849758    -0.58640
C69         C  0.61606782  0.49324192  0.31122103     0.75110
C70         C  0.55558801  0.49211555  0.24895464     0.77510
Cd71       Cd  0.60318448  0.47739405  0.24969761     1.37460
O72         O  0.61727400  0.50482832  0.20968931    -0.57480
O73         O  0.57218240  0.50457081  0.23958237    -0.56290
C74         C  0.62853550  0.43764988  0.22966688     0.77470
O75         O  0.56097609  0.47197949  0.25888000    -0.58670
O76         O  0.59892210  0.47375977  0.19494880    -0.57120
O77         O  0.60492281  0.47455057  0.30698690    -0.57110
O78         O  0.63769690  0.45723664  0.23503306    -0.56280
O79         O  0.76312238  0.37177068  0.33859906    -0.57490
C80         C  0.77548215  0.36748651  0.43741464     0.75140
O81         O  0.79425685  0.31101449  0.38464210    -0.58640
C82         C  0.77075832  0.35997274  0.31539201     0.75110
C83         C  0.82937582  0.37833110  0.35104166     0.77510
Cd84       Cd  0.79011050  0.35335825  0.37536872     1.37470
O85         O  0.76631947  0.37589218  0.41267215    -0.57480
O86         O  0.80959173  0.38676320  0.35626869    -0.56290
C87         C  0.77354146  0.30637127  0.37628701     0.77470
O88         O  0.83257595  0.35782800  0.36135232    -0.58670
O89         O  0.79275306  0.35429662  0.43318665    -0.57120
O90         O  0.78611367  0.34484663  0.32100448    -0.57110
O91         O  0.76145593  0.32354817  0.36794419    -0.56280
O92         O  0.89810853  0.49711963  0.28627966    -0.57490
C93         C  0.90030682  0.48904099  0.18464618     0.75140
O94         O  0.95648572  0.46722516  0.23423065    -0.58640
C95         C  0.90828081  0.48627677  0.30861762     0.75110
C96         C  0.88623298  0.43251515  0.26441042     0.77510
Cd97       Cd  0.91385879  0.47117114  0.24546563     1.37460
O98         O  0.89448829  0.49917955  0.21010726    -0.57480
O99         O  0.87787256  0.44980786  0.24994490    -0.56290
C100        C  0.96145863  0.48724498  0.24522958     0.77470
O101        O  0.90817199  0.43033591  0.26336729    -0.58670
O102        O  0.91062637  0.46969777  0.18731834    -0.57120
O103        O  0.92004948  0.46858946  0.30137725    -0.57110
O104        O  0.94449221  0.49871396  0.25553827    -0.56280
O105        O  0.76307656  0.15038146  0.08481111    -0.57490
C106        C  0.77652352  0.14992699  0.18749540     0.75140
O107        O  0.83193368  0.15902901  0.11132625    -0.58640
C108        C  0.76971717  0.16530844  0.06458098     0.75110
C109        C  0.77459714  0.21173233  0.13002788     0.77510
Cd110      Cd  0.79007236  0.16481788  0.12535404     1.37470
O111        O  0.76735510  0.14136594  0.16279401    -0.57480
O112        O  0.76099315  0.19449121  0.13040956    -0.56290
C113        C  0.82839325  0.13861322  0.10079830     0.77470
O114        O  0.79627619  0.20732834  0.12985762    -0.58670
O115        O  0.79311165  0.16395506  0.18289505    -0.57120
O116        O  0.78486798  0.17968789  0.07353946    -0.57110
O117        O  0.80865845  0.12991008  0.10603371    -0.56280
O118        O  0.88942850  0.02100170  0.46205024    -0.57490
C119        C  0.90816008  0.02374641  0.06022837     0.75140
O120        O  0.95555919  0.04808516  0.49565976    -0.58640
C121        C  0.89617252  0.03183657  0.43768280     0.75110
C122        C  0.88946130  0.08322587  0.02379939     0.77510
Cd123      Cd  0.91292279  0.04329267  0.49998894     1.37460
O124        O  0.89482549  0.01672831  0.03821893    -0.57480
O125        O  0.87930449  0.06467893  0.01579703    -0.56290
C126        C  0.95958037  0.02648403  0.49267206     0.77470
O127        O  0.91086967  0.08488693  0.01700514    -0.58670
O128        O  0.92347956  0.03852900  0.05339701    -0.57120
O129        O  0.90940803  0.04897558  0.44303309    -0.57110
O130        O  0.94186215  0.01361750  0.49201396    -0.56280
O131        O  0.74765526  0.14439430  0.33929886    -0.57490
C132        C  0.73585112  0.16517513  0.43630150     0.75140
O133        O  0.71471051  0.20728495  0.35984781    -0.58640
C134        C  0.73843842  0.15098987  0.31352110     0.75110
C135        C  0.68347141  0.13633895  0.39359073     0.77510
Cd136      Cd  0.72026922  0.16548788  0.37326771     1.37460
O137        O  0.74614630  0.15312056  0.41533074    -0.57480
O138        O  0.70291247  0.12852830  0.38489962    -0.56290
C139        C  0.73495927  0.21278266  0.36953952     0.77470
O140        O  0.67912785  0.15747046  0.38702716    -0.58670
O141        O  0.71846528  0.17696476  0.42765160    -0.57120
O142        O  0.72005623  0.16294317  0.31575409    -0.57110
O143        O  0.74718783  0.19640095  0.38022782    -0.56280
O144        O  0.61988533  0.01910431  0.03976303    -0.57490
C145        C  0.60437649  0.02011077  0.44145310     0.75140
O146        O  0.55762047  0.04909733  0.99729103    -0.58640
C147        C  0.61288289  0.03130496  0.06281305     0.75110
C148        C  0.62552485  0.08050392  0.47477683     0.77510
Cd149      Cd  0.60001552  0.04252413  0.99978542     1.37470
O150        O  0.61693386  0.01329043  0.46438806    -0.57480
O151        O  0.63445850  0.06106567  0.48139805    -0.56290
C152        C  0.55244750  0.02823399  0.00405645     0.77470
O153        O  0.60474434  0.08384442  0.48370544    -0.58670
O154        O  0.59016091  0.03629389  0.44654357    -0.57120
O155        O  0.60271328  0.05024363  0.05628812    -0.57110
O156        O  0.56937667  0.01525471  0.01061411    -0.56280
O157        O  0.76822682  0.87551330  0.08706070    -0.57490
C158        C  0.77349942  0.85258245  0.18487760     0.75140
O159        O  0.79898261  0.81118691  0.11433768    -0.58640
C160        C  0.77742269  0.86735781  0.06219834     0.75110
C161        C  0.83006310  0.88101628  0.14912727     0.77510
Cd162      Cd  0.79282782  0.85337793  0.12393929     1.37470
O163        O  0.76612063  0.86704494  0.16442519    -0.57480
O164        O  0.81036128  0.88922053  0.14227873    -0.56290
C165        C  0.77771852  0.80624486  0.11929363     0.77470
O166        O  0.83425008  0.86045266  0.13964516    -0.58670
O167        O  0.78914049  0.83866633  0.17616264    -0.57120
O168        O  0.79493811  0.85441705  0.06630404    -0.57110
O169        O  0.76437485  0.82312140  0.12504688    -0.56280
O170        O  0.89917332  0.00853777  0.21341204    -0.57490
C171        C  0.89541166  0.99473026  0.31122753     0.75140
O172        O  0.91005605  0.93685197  0.23536433    -0.58640
C173        C  0.90727689  0.99698877  0.19033248     0.75110
C174        C  0.95993846  0.99290079  0.25435356     0.77510
Cd175      Cd  0.91220331  0.97861129  0.25136662     1.37470
O176        O  0.88861079  0.00367466  0.28545028    -0.57480
O177        O  0.94350649  0.00611181  0.24637760    -0.56290
C178        C  0.88859259  0.93812316  0.22867019     0.77470
O179        O  0.95446904  0.97221118  0.26173132    -0.58670
O180        O  0.90809792  0.97684070  0.30913100    -0.57120
O181        O  0.91627991  0.97759307  0.19647792    -0.57110
O182        O  0.87822982  0.95651076  0.23687268    -0.56280
O183        O  0.61561346  0.00347303  0.29030825    -0.57490
C184        C  0.61405779  0.99105813  0.18764263     0.75140
O185        O  0.60835610  0.93427626  0.26040958    -0.58640
C186        C  0.60569018  0.99175762  0.31194495     0.75110
C187        C  0.55529875  0.99196954  0.24904104     0.77510
Cd188      Cd  0.60231335  0.97621816  0.24958524     1.37460
O189        O  0.62277741  0.00114017  0.21161296    -0.57480
O190        O  0.57256009  0.00546691  0.24871774    -0.56290
C191        C  0.62896662  0.93766252  0.27032468     0.77470
O192        O  0.55974555  0.97032628  0.24825771    -0.58670
O193        O  0.60269952  0.97252865  0.19243677    -0.57120
O194        O  0.59503811  0.97356856  0.30379416    -0.57110
O195        O  0.63751267  0.95763094  0.26570220    -0.56280
O196        O  0.74914651  0.86512593  0.33427595    -0.57490
C197        C  0.73881604  0.86582827  0.43582388     0.75140
O198        O  0.68153700  0.85900651  0.35803579    -0.58640
C199        C  0.73959862  0.85291688  0.31273248     0.75110
C200        C  0.73756651  0.80466157  0.37867686     0.77510
Cd201      Cd  0.72241157  0.85171389  0.37472119     1.37470
O202        O  0.74784364  0.87366246  0.41065485    -0.57480
O203        O  0.75050278  0.82139975  0.37085478    -0.56290
C204        C  0.68555432  0.88034334  0.35240333     0.77470
O205        O  0.71659492  0.80963736  0.38543634    -0.58670
O206        O  0.72123336  0.85282204  0.43233838    -0.57120
O207        O  0.72252769  0.84042061  0.32050993    -0.57110
O208        O  0.70443059  0.88845973  0.36292632    -0.56280
O209        O  0.39377180  0.00614157  0.03909448    -0.57490
C210        C  0.39779972  0.99160133  0.43854244     0.75140
O211        O  0.45238475  0.97166783  0.00273956    -0.58640
C212        C  0.40703517  0.99872238  0.06095043     0.75110
C213        C  0.38442965  0.93948763  0.02399015     0.77510
Cd214      Cd  0.40997670  0.97829024  0.00109571     1.37470
O215        O  0.39096767  0.00349168  0.46201023    -0.57480
O216        O  0.37607199  0.95964143  0.02080488    -0.56290
C217        C  0.45750059  0.99269908  0.49687465     0.77470
O218        O  0.40457456  0.93615209  0.01265706    -0.58670
O219        O  0.40690616  0.97202923  0.44443508    -0.57120
O220        O  0.42108706  0.98269138  0.05426393    -0.57110
O221        O  0.44049286  0.00581696  0.49135059    -0.56280
O222        O  0.26559126  0.87639402  0.16444227    -0.57490
C223        C  0.27208574  0.86064847  0.06637918     0.75140
O224        O  0.33117048  0.85952691  0.10860234    -0.58640
C225        C  0.27467731  0.86787789  0.18920404     0.75110
C226        C  0.27570344  0.80746344  0.13000576     0.77510
Cd227      Cd  0.29046718  0.85475661  0.12752787     1.37470
O228        O  0.26428619  0.87277857  0.08914663    -0.57480
O229        O  0.26287259  0.82400316  0.12113108    -0.56290
C230        C  0.32895901  0.88139060  0.10588005     0.77470
O231        O  0.29631907  0.81278996  0.13820775    -0.58670
O232        O  0.28711664  0.84547939  0.07299194    -0.57120
O233        O  0.29183678  0.85451550  0.18497393    -0.57110
O234        O  0.31163942  0.89041392  0.11932561    -0.56280
O235        O  0.39305318  0.02200153  0.29001013    -0.57490
C236        C  0.41015150  0.02748746  0.19048601     0.75140
O237        O  0.41034286  0.08691734  0.23648236    -0.58640
C238        C  0.40155888  0.03228263  0.31393689     0.75110
C239        C  0.46180183  0.02960284  0.25366953     0.77510
Cd240      Cd  0.41478422  0.04542742  0.25171306     1.37470
O241        O  0.40066959  0.01660810  0.21322868    -0.57480
O242        O  0.44449586  0.01617414  0.25410367    -0.56290
C243        C  0.38909211  0.08417130  0.22915814     0.77470
O244        O  0.45742566  0.05125912  0.25385818    -0.58670
O245        O  0.42108716  0.04579766  0.19715541    -0.57120
O246        O  0.41373962  0.05024887  0.30892155    -0.57110
O247        O  0.37978748  0.06507319  0.23678402    -0.56280
O248        O  0.26370278  0.15122313  0.16618347    -0.57490
C249        C  0.27514547  0.15162547  0.06406786     0.75140
O250        O  0.29824477  0.20827608  0.12624209    -0.58640
C251        C  0.27054398  0.16576121  0.18686264     0.75110
C252        C  0.32819031  0.13844693  0.14958234     0.77510
Cd253      Cd  0.29052608  0.16588436  0.12582838     1.37460
O254        O  0.26573954  0.14389934  0.08902413    -0.57480
O255        O  0.30829102  0.13025185  0.14386917    -0.56290
C256        C  0.27728162  0.21359992  0.12008495     0.77470
O257        O  0.33229547  0.15878462  0.13922337    -0.58670
O258        O  0.29301509  0.16415961  0.06814235    -0.57120
O259        O  0.28505020  0.18074394  0.17800984    -0.57110
O260        O  0.26393283  0.19676429  0.11408890    -0.56280
O261        O  0.24826651  0.15238893  0.33877049    -0.57490
C262        C  0.23541869  0.15326534  0.43805490     0.75140
O263        O  0.21429089  0.21119334  0.37370205    -0.58640
C264        C  0.24011980  0.16439778  0.31611924     0.75110
C265        C  0.18113926  0.14239846  0.35519280     0.77510
Cd266      Cd  0.22027386  0.16852987  0.37670930     1.37460
O267        O  0.24448354  0.14559242  0.41284534    -0.57480
O268        O  0.20165295  0.13486291  0.35684950    -0.56290
C269        C  0.23534930  0.21591348  0.37997016     0.77470
O270        O  0.17753270  0.16231597  0.36728994    -0.58670
O271        O  0.21778506  0.16620270  0.43464700    -0.57120
O272        O  0.22406641  0.17851515  0.32241751    -0.57110
O273        O  0.24781957  0.19871325  0.38698028    -0.56280
O274        O  0.11860317  0.01972881  0.21098208    -0.57490
C275        C  0.10814122  0.02743197  0.31056246     0.75140
O276        O  0.10362246  0.08629013  0.26967117    -0.58640
C277        C  0.11100515  0.03081123  0.18717931     0.75110
C278        C  0.05318347  0.03033280  0.24812123     0.77510
Cd279      Cd  0.10029075  0.04579728  0.24978344     1.37470
O280        O  0.12019772  0.02020707  0.28738890    -0.57480
O281        O  0.07006704  0.01726842  0.25485107    -0.56290
C282        C  0.12558179  0.08516761  0.27180231     0.77470
O283        O  0.05800910  0.05137761  0.24164540    -0.58670
O284        O  0.09240876  0.04203023  0.30466895    -0.57120
O285        O  0.10096035  0.04997738  0.19254882    -0.57110
O286        O  0.13522774  0.06848480  0.25752939    -0.56280
O287        O  0.12168237  0.00216838  0.46188132    -0.57490
C288        C  0.11141821  0.99003119  0.06228766     0.75140
O289        O  0.05934345  0.96893923  0.99613642    -0.58640
C290        C  0.10906280  0.99568790  0.43878775     0.75110
C291        C  0.12706593  0.93657641  0.47797701     0.77510
Cd292      Cd  0.10157807  0.97595925  0.49902066     1.37470
O293        O  0.12029573  0.00065711  0.03900100    -0.57480
O294        O  0.13674148  0.95394485  0.49068757    -0.56290
C295        C  0.05404708  0.99029955  0.99854130     0.77470
O296        O  0.10523154  0.93500912  0.48127094    -0.58670
O297        O  0.10023236  0.97154250  0.05636549    -0.57120
O298        O  0.09294539  0.98160565  0.44470344    -0.57110
O299        O  0.07076285  0.00409890  0.00308901    -0.56280
O300        O  0.24924329  0.87155003  0.41408390    -0.57490
C301        C  0.23755813  0.86660683  0.31572898     0.75140
O302        O  0.21633341  0.80998009  0.37345394    -0.58640
C303        C  0.24123219  0.86066196  0.43778571     0.75110
C304        C  0.18236687  0.87775737  0.39723384     0.77510
Cd305      Cd  0.22246356  0.85245253  0.37746616     1.37460
O306        O  0.24671237  0.87469471  0.34067510    -0.57480
O307        O  0.20229460  0.88630986  0.39334451    -0.56290
C308        C  0.23769894  0.80539461  0.37772388     0.77470
O309        O  0.17971325  0.85684554  0.38826223    -0.58670
O310        O  0.22028018  0.85331748  0.31950556    -0.57120
O311        O  0.22552149  0.84579957  0.43274276    -0.57110
O312        O  0.25132136  0.82240347  0.38104440    -0.56280
O313        O  0.39749935  0.51347892  0.29013143    -0.57490
C314        C  0.39989347  0.52661776  0.18796951     0.75140
O315        O  0.41131891  0.58235453  0.26805689    -0.58640
C316        C  0.40948723  0.52308628  0.31189432     0.75110
C317        C  0.46056303  0.52648509  0.24733197     0.77510
Cd318      Cd  0.41298940  0.54106022  0.25061331     1.37460
O319        O  0.39232069  0.51587818  0.21203780    -0.57480
O320        O  0.44432416  0.51363029  0.25692836    -0.56290
C321        C  0.39008086  0.58117338  0.27578036     0.77470
O322        O  0.45474035  0.54681869  0.23869951    -0.58670
O323        O  0.41079668  0.54536499  0.19300295    -0.57120
O324        O  0.42253915  0.53965480  0.30397387    -0.57110
O325        O  0.37913144  0.56311240  0.26745767    -0.56280
O326        O  0.26522608  0.65159630  0.33473801    -0.57490
C327        C  0.27842521  0.65171759  0.43637347     0.75140
O328        O  0.33453390  0.66201377  0.35956282    -0.58640
C329        C  0.27179245  0.66600436  0.31380995     0.75110
C330        C  0.27704187  0.71329573  0.37902584     0.77510
Cd331      Cd  0.29263167  0.66643258  0.37436254     1.37470
O332        O  0.26965780  0.64287295  0.41158585    -0.57480
O333        O  0.26347203  0.69619518  0.37590724    -0.56290
C334        C  0.33193191  0.64120303  0.35011004     0.77470
O335        O  0.29861748  0.70886190  0.38177457    -0.58670
O336        O  0.29503774  0.66575885  0.43208502    -0.57120
O337        O  0.28742424  0.68003848  0.32213150    -0.57110
O338        O  0.31253533  0.63181032  0.35545252    -0.56280
O339        O  0.26490854  0.37787931  0.40818142    -0.57490
C340        C  0.27703267  0.36998828  0.31220876     0.75140
O341        O  0.33393773  0.35265630  0.39098415    -0.58640
C342        C  0.27299413  0.36883312  0.43330056     0.75110
C343        C  0.27510677  0.30908880  0.37416357     0.77510
Cd344      Cd  0.29229615  0.35603520  0.37448400     1.37460
O345        O  0.26848016  0.37899062  0.33691889    -0.57480
O346        O  0.26476659  0.32567227  0.38750238    -0.56290
C347        C  0.33652848  0.37439840  0.39404018     0.77470
O348        O  0.29427526  0.31410888  0.36120032    -0.58670
O349        O  0.29375787  0.35612162  0.31643789    -0.57120
O350        O  0.28922298  0.35430659  0.43043093    -0.57110
O351        O  0.32012136  0.38690318  0.38388018    -0.56280
O352        O  0.39446914  0.50286787  0.46500468    -0.57490
C353        C  0.39951008  0.48595676  0.06250598     0.75140
O354        O  0.41196962  0.43088779  0.48616767    -0.58640
C355        C  0.40882216  0.49883583  0.44295220     0.75110
C356        C  0.46158719  0.48762454  0.00409286     0.77510
Cd357      Cd  0.41346523  0.47346032  0.99969743     1.37460
O358        O  0.39328785  0.49797776  0.03886491    -0.57480
O359        O  0.44500990  0.49895821  0.01571713    -0.56290
C360        C  0.39261403  0.43273440  0.47193636     0.77470
O361        O  0.45613002  0.46789833  0.99297828    -0.58670
O362        O  0.40888993  0.46651799  0.05657150    -0.57120
O363        O  0.42458560  0.48428793  0.44856703    -0.57110
O364        O  0.38208733  0.45184676  0.47494244    -0.56280
O365        O  0.25104898  0.65100037  0.16199671    -0.57490
C366        C  0.24028240  0.65204671  0.06253779     0.75140
O367        O  0.18099641  0.66107982  0.13442462    -0.58640
C368        C  0.24072815  0.66092301  0.18486652     0.75110
C369        C  0.23832010  0.71387887  0.12315032     0.77510
Cd370      Cd  0.22347872  0.66641658  0.12346756     1.37460
O371        O  0.24918221  0.64431687  0.08787379    -0.57480
O372        O  0.25090366  0.69711908  0.13170340    -0.56290
C373        C  0.18403951  0.64018524  0.14322560     0.77470
O374        O  0.21781006  0.70879439  0.11430657    -0.58670
O375        O  0.22264770  0.66493188  0.06565064    -0.57120
O376        O  0.22289279  0.67286432  0.17875928    -0.57110
O377        O  0.20399719  0.63183455  0.13866920    -0.56280
O378        O  0.12187520  0.51669258  0.20837587    -0.57490
C379        C  0.11622180  0.53036730  0.30973997     0.75140
O380        O  0.10675767  0.58278896  0.22709204    -0.58640
C381        C  0.10995101  0.52452101  0.18529723     0.75110
C382        C  0.05554117  0.52599785  0.24993669     0.77510
Cd383      Cd  0.10270416  0.54219705  0.24639381     1.37470
O384        O  0.11897157  0.51620961  0.28702825    -0.57480
O385        O  0.07225606  0.51392164  0.24007680    -0.56290
C386        C  0.12859085  0.58082410  0.22349583     0.77470
O387        O  0.06072001  0.54660237  0.25832387    -0.58670
O388        O  0.10907696  0.55036914  0.30213957    -0.57120
O389        O  0.09453889  0.53941658  0.19145782    -0.57110
O390        O  0.13803271  0.56318450  0.23579886    -0.56280
O391        O  0.24981317  0.37805757  0.16014118    -0.57490
C392        C  0.24530370  0.36465378  0.06175444     0.75140
O393        O  0.22021640  0.31353097  0.11723421    -0.58640
C394        C  0.24010619  0.37008999  0.18469196     0.75110
C395        C  0.18596162  0.38123651  0.10028245     0.77510
Cd396      Cd  0.22608431  0.35598691  0.12192667     1.37460
O397        O  0.25083760  0.37758354  0.08493184    -0.57480
O398        O  0.20640471  0.38883082  0.10180387    -0.56290
C399        C  0.24119908  0.30847105  0.12347234     0.77470
O400        O  0.18281255  0.36127223  0.11244099    -0.58670
O401        O  0.23349126  0.34676922  0.06788337    -0.57120
O402        O  0.22265842  0.35715256  0.17984303    -0.57110
O403        O  0.25418174  0.32544320  0.13019380    -0.56280
O404        O  0.12218634  0.50367735  0.46254638    -0.57490
C405        C  0.11142376  0.49410633  0.05670329     0.75140
O406        O  0.05938141  0.46843694  0.48970684    -0.58640
C407        C  0.11670583  0.49403472  0.43662431     0.75110
C408        C  0.12635746  0.43523310  0.01702725     0.77510
Cd409      Cd  0.10196613  0.47565244  0.49610209     1.37470
O410        O  0.12368508  0.50054406  0.03343266    -0.57480
O411        O  0.13541058  0.44983808  0.99850546    -0.56290
C412        C  0.05431270  0.48972393  0.49376550     0.77470
O413        O  0.10446895  0.43598790  0.01940034    -0.58670
O414        O  0.09484602  0.48048551  0.05097801    -0.57120
O415        O  0.10611438  0.47474455  0.43824193    -0.57110
O416        O  0.07097939  0.50370615  0.49722186    -0.56280
C417        C  0.14886179  0.38456298  0.06726476    -0.01520
C418        C  0.16793429  0.39510519  0.08296895     0.08160
C419        C  0.17205540  0.41905891  0.07784205    -0.01630
C420        C  0.15954671  0.43131843  0.05471307    -0.01640
C421        C  0.14102007  0.42062386  0.03822111     0.08290
C422        C  0.13527598  0.39742424  0.04545801    -0.01830
Br423      Br  0.10951667  0.38280728  0.02415848    -0.00380
Br424      Br  0.14107619  0.35250681  0.07475781    -0.00450
Br425      Br  0.16763986  0.46350865  0.04732040    -0.00410
Br426      Br  0.19385195  0.43625244  0.10390158    -0.00400
C427        C  0.11429513  0.49293692  0.14556970    -0.01520
C428        C  0.11343689  0.51679366  0.15249735     0.08160
C429        C  0.11415158  0.53323908  0.12763960    -0.01630
C430        C  0.11589899  0.52577967  0.09614427    -0.01640
C431        C  0.11548461  0.50194944  0.08925039     0.08290
C432        C  0.11521165  0.48553527  0.11401083    -0.01830
Br433      Br  0.11551708  0.45269613  0.10491474    -0.00380
Br434      Br  0.11114962  0.47019935  0.17883901    -0.00450
Br435      Br  0.11695057  0.54831882  0.06237205    -0.00410
Br436      Br  0.11131968  0.56609243  0.13582541    -0.00400
C437        C  0.10887663  0.52645969  0.39936363    -0.01520
C438        C  0.12060550  0.50563328  0.40592322     0.08160
C439        C  0.13403894  0.49515759  0.38224059    -0.01630
C440        C  0.13443483  0.50457106  0.35145572    -0.01640
C441        C  0.11985113  0.52351361  0.34351557     0.08290
C442        C  0.10741186  0.53474995  0.36813503    -0.01830
Br443      Br  0.08627736  0.56013529  0.36003002    -0.00380
Br444      Br  0.09410125  0.54339036  0.43321764    -0.00450
Br445      Br  0.15584917  0.49186376  0.32104439    -0.00410
Br446      Br  0.15259225  0.46841424  0.39258453    -0.00400
C447        C  0.15219383  0.63568456  0.18408710    -0.01520
C448        C  0.16639844  0.62599864  0.16017532     0.08160
C449        C  0.16746928  0.60165573  0.15714801    -0.01630
C450        C  0.15698366  0.58725216  0.17970429    -0.01640
C451        C  0.14224611  0.59677397  0.20306746     0.08290
C452        C  0.13965931  0.62106778  0.20481403    -0.01830
Br453      Br  0.12101388  0.63437709  0.23795455    -0.00380
Br454      Br  0.15104380  0.66878994  0.19053486    -0.00450
Br455      Br  0.16366189  0.55436653  0.17800183    -0.00410
Br456      Br  0.18254577  0.58765650  0.12101906    -0.00400
C457        C  0.23466639  0.36641516  0.00458631    -0.01520
C458        C  0.25133503  0.37013652  0.02875512     0.08160
C459        C  0.27364496  0.37809642  0.02079568    -0.01630
C460        C  0.27968458  0.38056718  0.48885815    -0.01640
C461        C  0.26401481  0.37391291  0.46492870     0.08290
C462        C  0.24121967  0.36767578  0.47270042    -0.01830
Br463      Br  0.21960882  0.35876416  0.43990586    -0.00380
Br464      Br  0.20266988  0.35978158  0.01469235    -0.00450
Br465      Br  0.30955614  0.39294624  0.47760280    -0.00410
Br466      Br  0.29678820  0.38350842  0.05300042    -0.00400
C467        C  0.28232655  0.37703548  0.25399187    -0.01520
C468        C  0.26737385  0.37427184  0.28004079     0.08160
C469        C  0.24320835  0.37324293  0.27472443    -0.01630
C470        C  0.23422658  0.37391527  0.24367066    -0.01640
C471        C  0.24930793  0.37441844  0.21732584     0.08290
C472        C  0.27348979  0.37673861  0.22283004    -0.01830
Br473      Br  0.29533263  0.37782438  0.18827443    -0.00380
Br474      Br  0.31516751  0.38141810  0.26096193    -0.00450
Br475      Br  0.20099994  0.37458482  0.23779340    -0.00410
Br476      Br  0.22214876  0.36862247  0.30961415    -0.00400
C477        C  0.37600324  0.39277313  0.46143126    -0.01520
C478        C  0.38313757  0.41465558  0.45040441     0.08160
C479        C  0.37943966  0.42040273  0.41836297    -0.01630
C480        C  0.36583921  0.40607897  0.39881946    -0.01640
C481        C  0.35652604  0.38527213  0.41070641     0.08290
C482        C  0.36310034  0.37784435  0.44141095    -0.01830
Br483      Br  0.35287209  0.34824308  0.45738574    -0.00380
Br484      Br  0.38228269  0.38415927  0.00460123    -0.00450
Br485      Br  0.35962564  0.41526620  0.35569988    -0.00410
Br486      Br  0.39334664  0.44788102  0.40086259    -0.00400
C487        C  0.24195619  0.65404133  0.27324403    -0.01520
C488        C  0.26270073  0.66597916  0.28088728     0.08160
C489        C  0.27537939  0.67696023  0.25620862    -0.01630
C490        C  0.26960855  0.67257246  0.22457818    -0.01640
C491        C  0.24944649  0.66014860  0.21725371     0.08290
C492        C  0.23532246  0.65136523  0.24146792    -0.01830
Br493      Br  0.20684201  0.63549463  0.23087843    -0.00380
Br494      Br  0.22077001  0.64376958  0.30568379    -0.00450
Br495      Br  0.28886953  0.68452255  0.19093337    -0.00410
Br496      Br  0.29907490  0.70019784  0.26389594    -0.00400
C497        C  0.23581945  0.64396968  0.00444222    -0.01520
C498        C  0.25044187  0.64741246  0.03083788     0.08160
C499        C  0.27465706  0.64880314  0.02617119    -0.01630
C500        C  0.28391636  0.64813492  0.99535947    -0.01640
C501        C  0.26907326  0.64715229  0.46868586     0.08290
C502        C  0.24492952  0.64433111  0.47353877    -0.01830
Br503      Br  0.22349902  0.64292466  0.43836591    -0.00380
Br504      Br  0.20308393  0.63845798  0.01053415    -0.00450
Br505      Br  0.31719243  0.64833067  0.49015084    -0.00410
Br506      Br  0.29543026  0.65373945  0.06149539    -0.00400
C507        C  0.38677015  0.50879559  0.39366836    -0.01520
C508        C  0.40758974  0.50921235  0.41124783     0.08160
C509        C  0.42862766  0.51460079  0.39613128    -0.01630
C510        C  0.42934872  0.51709829  0.36328998    -0.01640
C511        C  0.40864190  0.51630054  0.34541519     0.08290
C512        C  0.38727757  0.51254619  0.36077290    -0.01830
Br513      Br  0.35859151  0.51298032  0.33720737    -0.00380
Br514      Br  0.35767603  0.50192894  0.41402074    -0.00450
Br515      Br  0.45927477  0.52000559  0.34299144    -0.00410
Br516      Br  0.45669524  0.51908318  0.42058649    -0.00400
C517        C  0.41922200  0.50664727  0.14328446    -0.01520
C518        C  0.39885686  0.51636232  0.15586330     0.08160
C519        C  0.37833993  0.51612818  0.13775506    -0.01630
C520        C  0.37817264  0.50590834  0.10729731    -0.01640
C521        C  0.39841569  0.49529997  0.09525537     0.08290
C522        C  0.41896957  0.49582211  0.11351374    -0.01830
Br523      Br  0.44762514  0.48329814  0.09710915    -0.00380
Br524      Br  0.44797096  0.50887580  0.16651453    -0.00450
Br525      Br  0.35019340  0.50632217  0.08232943    -0.00410
Br526      Br  0.35100498  0.53100810  0.15406671    -0.00400
C527        C  0.38006284  0.59927182  0.32807720    -0.01520
C528        C  0.37839725  0.59935310  0.29467033     0.08160
C529        C  0.36279633  0.61450830  0.27986347    -0.01630
C530        C  0.34845024  0.62891675  0.29818461    -0.01640
C531        C  0.34969700  0.62860473  0.33152452     0.08290
C532        C  0.36564656  0.61376570  0.34642181    -0.01830
Br533      Br  0.36633860  0.61208583  0.39194714    -0.00380
Br534      Br  0.40096583  0.57832646  0.34906123    -0.00450
Br535      Br  0.32569643  0.64760154  0.27733949    -0.00410
Br536      Br  0.36049494  0.61470422  0.23433669    -0.00400
C537        C  0.24322614  0.76640636  0.35301850    -0.01520
C538        C  0.24682118  0.78148548  0.37873092     0.08160
C539        C  0.26075091  0.77431316  0.40445714    -0.01630
C540        C  0.27116965  0.75222138  0.40432180    -0.01640
C541        C  0.26761954  0.73714317  0.37855940     0.08290
C542        C  0.25351916  0.74429816  0.35296207    -0.01830
Br543      Br  0.24898360  0.72431275  0.31685423    -0.00380
Br544      Br  0.22530541  0.77650826  0.31693065    -0.00450
Br545      Br  0.28924628  0.74216815  0.44020837    -0.00410
Br546      Br  0.26465192  0.79431757  0.44074119    -0.00400
C547        C  0.13698947  0.89646818  0.45753587    -0.01520
C548        C  0.14039530  0.92070815  0.45707588     0.08160
C549        C  0.15528517  0.93041273  0.43404739    -0.01630
C550        C  0.16582076  0.91620545  0.41131449    -0.01640
C551        C  0.16435543  0.89183424  0.41359786     0.08290
C552        C  0.14931374  0.88199613  0.43638201    -0.01830
Br553      Br  0.14633005  0.84880167  0.44031178    -0.00380
Br554      Br  0.11719756  0.88289864  0.48919144    -0.00450
Br555      Br  0.18151708  0.93053677  0.37591732    -0.00410
Br556      Br  0.16195080  0.96333213  0.43289007    -0.00400
C557        C  0.11347729  0.02769341  0.39974388    -0.01520
C558        C  0.11242414  0.00380149  0.40618492     0.08160
C559        C  0.11173784  0.98763158  0.38098840    -0.01630
C560        C  0.11193285  0.99538453  0.34956339    -0.01640
C561        C  0.11168067  0.01930465  0.34315139     0.08290
C562        C  0.11237756  0.03547143  0.36834026    -0.01830
Br563      Br  0.11063558  0.06843015  0.36049680    -0.00380
Br564      Br  0.11421244  0.04998164  0.43388381    -0.00450
Br565      Br  0.10997090  0.97309916  0.31546724    -0.00410
Br566      Br  0.10954473  0.95467925  0.38893939    -0.00400
C567        C  0.13296103  0.00308684  0.11107259    -0.01520
C568        C  0.11197711  0.99997305  0.09447131     0.08160
C569        C  0.09101128  0.00752185  0.10799337    -0.01630
C570        C  0.09096266  0.01813680  0.13788358    -0.01640
C571        C  0.11188036  0.02096967  0.15486816     0.08290
C572        C  0.13289357  0.01332837  0.14142625    -0.01830
Br573      Br  0.16163059  0.01771782  0.16399441    -0.00380
Br574      Br  0.16160644  0.99273979  0.09252769    -0.00450
Br575      Br  0.06180223  0.02797283  0.15583452    -0.00410
Br576      Br  0.06217804  0.00403816  0.08506115    -0.00400
C577        C  0.26991753  0.24311974  0.37651369    -0.01520
C578        C  0.24543820  0.23989759  0.37834400     0.08160
C579        C  0.23099700  0.25977712  0.37748489    -0.01630
C580        C  0.24071561  0.28209591  0.37415072    -0.01640
C581        C  0.26506471  0.28524955  0.37421810     0.08290
C582        C  0.27954785  0.26558154  0.37548351    -0.01830
Br583      Br  0.31293461  0.26898959  0.37716449    -0.00380
Br584      Br  0.29137432  0.21730942  0.37413982    -0.00450
Br585      Br  0.22009468  0.30812387  0.36731084    -0.00410
Br586      Br  0.19771440  0.25739335  0.38209205    -0.00400
C587        C  0.15492192  0.09045477  0.31488101    -0.01520
C588        C  0.13920100  0.10060872  0.29314717     0.08160
C589        C  0.13526565  0.12474953  0.29451032    -0.01630
C590        C  0.14771652  0.13870974  0.31629920    -0.01640
C591        C  0.16341222  0.12841638  0.33794815     0.08290
C592        C  0.16570650  0.10406362  0.33820713    -0.01830
Br593      Br  0.18289183  0.08890152  0.37173176    -0.00380
Br594      Br  0.16207167  0.05765015  0.31376598    -0.00450
Br595      Br  0.14410603  0.17193869  0.31473965    -0.00410
Br596      Br  0.11444809  0.13899184  0.26453918    -0.00400
C597        C  0.28295498  0.25709910  0.11499136    -0.01520
C598        C  0.26823287  0.23795795  0.12081162     0.08160
C599        C  0.24454676  0.24223258  0.12802307    -0.01630
C600        C  0.23576346  0.26506070  0.12873319    -0.01640
C601        C  0.25043090  0.28419042  0.12262968     0.08290
C602        C  0.27417779  0.27995425  0.11582417    -0.01830
Br603      Br  0.29528510  0.30509993  0.10605538    -0.00380
Br604      Br  0.31530404  0.25253221  0.10470869    -0.00450
Br605      Br  0.20354105  0.26962485  0.13985603    -0.00410
Br606      Br  0.22358103  0.21724205  0.13917022    -0.00400
C607        C  0.23950807  0.15996892  0.22724216    -0.01520
C608        C  0.26280547  0.16501176  0.22008052     0.08160
C609        C  0.27889273  0.16904277  0.24498618    -0.01630
C610        C  0.27177673  0.16713510  0.27658877    -0.01640
C611        C  0.24848352  0.16243626  0.28353026     0.08290
C612        C  0.23240560  0.15865083  0.25888507    -0.01830
Br613      Br  0.20055884  0.15114734  0.26843165    -0.00380
Br614      Br  0.21664414  0.15703881  0.19400022    -0.00450
Br615      Br  0.29380518  0.17188576  0.31045831    -0.00410
Br616      Br  0.31084071  0.17741088  0.23684010    -0.00400
C617        C  0.24081450  0.14572102  0.02726647    -0.01520
C618        C  0.26513960  0.14757139  0.03181566     0.08160
C619        C  0.27963686  0.14805093  0.50489058    -0.01630
C620        C  0.27000548  0.14931473  0.47424668    -0.01640
C621        C  0.24568621  0.14863502  0.46984643     0.08290
C622        C  0.23129462  0.14570655  0.99646765    -0.01830
Br623      Br  0.19831222  0.14135931  0.99089010    -0.00380
Br624      Br  0.21971186  0.14500352  0.06268763    -0.00450
Br625      Br  0.29057656  0.15428318  0.43885694    -0.00410
Br626      Br  0.31296914  0.14658643  0.50940645    -0.00400
C627        C  0.36762736  0.12090045  0.16030643    -0.01520
C628        C  0.34473108  0.12544836  0.16997887     0.08160
C629        C  0.33729078  0.11744254  0.19992975    -0.01630
C630        C  0.35295060  0.10670206  0.22074608    -0.01640
C631        C  0.37552576  0.10136907  0.21079375     0.08290
C632        C  0.38280422  0.10834457  0.18029641    -0.01830
Br633      Br  0.41254360  0.09862108  0.16436977    -0.00380
Br634      Br  0.37710173  0.12911540  0.11809978    -0.00450
Br635      Br  0.34347810  0.09930710  0.26336559    -0.00410
Br636      Br  0.30523423  0.11929546  0.21236939    -0.00400
C637        C  0.24307812  0.77901226  0.13747324    -0.01520
C638        C  0.26662286  0.78327886  0.12991942     0.08160
C639        C  0.28066608  0.76463100  0.11995135    -0.01630
C640        C  0.27120588  0.74219203  0.11689143    -0.01640
C641        C  0.24759134  0.73797606  0.12411368     0.08290
C642        C  0.23361077  0.75657435  0.13438498    -0.01830
Br643      Br  0.20160998  0.75146705  0.14587131    -0.00380
Br644      Br  0.22366317  0.80352320  0.15402882    -0.00450
Br645      Br  0.29077952  0.71763537  0.10081137    -0.00410
Br646      Br  0.31276289  0.76961959  0.10883935    -0.00400
C647        C  0.27336386  0.86267073  0.47699396    -0.01520
C648        C  0.24961557  0.86455045  0.47009923     0.08160
C649        C  0.23344153  0.86749099  0.49470526    -0.01630
C650        C  0.24075993  0.86678567  0.02633417    -0.01640
C651        C  0.26443903  0.86377599  0.03341706     0.08290
C652        C  0.28082903  0.86238585  0.00858482    -0.01830
Br653      Br  0.31369223  0.85989339  0.01712008    -0.00380
Br654      Br  0.29559586  0.85864641  0.44333617    -0.00450
Br655      Br  0.21783073  0.86765808  0.05951946    -0.00410
Br656      Br  0.20109724  0.87262621  0.48516942    -0.00400
C657        C  0.28039298  0.87181126  0.24793391    -0.01520
C658        C  0.26531892  0.87219995  0.22150360     0.08160
C659        C  0.24114927  0.87431981  0.22663163    -0.01630
C660        C  0.23226132  0.87434630  0.25765821    -0.01640
C661        C  0.24720072  0.87130938  0.28380869     0.08290
C662        C  0.27140806  0.87070158  0.27881555    -0.01830
Br663      Br  0.29265161  0.86615838  0.31371775    -0.00380
Br664      Br  0.31361689  0.87324834  0.24230623    -0.00450
Br665      Br  0.19945489  0.87893087  0.26424655    -0.00410
Br666      Br  0.21951940  0.87550791  0.19167789    -0.00400
C667        C  0.38791781  0.01179615  0.14419475    -0.01520
C668        C  0.40897104  0.01974432  0.15742974     0.08160
C669        C  0.42885351  0.02200090  0.13819173    -0.01630
C670        C  0.42771193  0.01602217  0.10620906    -0.01640
C671        C  0.40679441  0.00795378  0.09310391     0.08290
C672        C  0.38690496  0.00575664  0.11201375    -0.01830
Br673      Br  0.35876056  0.99301455  0.09435001    -0.00380
Br674      Br  0.36013432  0.01011401  0.16938765    -0.00450
Br675      Br  0.45512316  0.01876639  0.08032153    -0.00410
Br676      Br  0.45827435  0.03252077  0.15516055    -0.00400
C677        C  0.41899055  0.00253686  0.38971561    -0.01520
C678        C  0.39774139  0.00118558  0.40610422     0.08160
C679        C  0.37752736  0.01061358  0.39231582    -0.01630
C680        C  0.37853651  0.02096506  0.36207931    -0.01640
C681        C  0.39979868  0.02224893  0.34591144     0.08290
C682        C  0.41997174  0.01299836  0.35981715    -0.01830
Br683      Br  0.44914631  0.01416000  0.33750989    -0.00380
Br684      Br  0.44739914  0.99141938  0.40880983    -0.00450
Br685      Br  0.35112278  0.03411336  0.34319317    -0.00410
Br686      Br  0.34844553  0.00886175  0.41444082    -0.00400
C687        C  0.33331408  0.90971531  0.06159240    -0.01520
C688        C  0.34393502  0.89557955  0.08486209     0.08160
C689        C  0.36831153  0.89440628  0.08626905    -0.01630
C690        C  0.38191888  0.90793051  0.06545900    -0.01640
C691        C  0.37117869  0.92167341  0.04182805     0.08290
C692        C  0.34682353  0.92157403  0.03929160    -0.01830
Br693      Br  0.33164559  0.93715850  0.00438526    -0.00380
Br694      Br  0.30004531  0.91356538  0.05969792    -0.00450
Br695      Br  0.41505380  0.90897218  0.07148876    -0.00410
Br696      Br  0.38299760  0.87606144  0.11871487    -0.00400
C697        C  0.51319790  0.99083095  0.23319413    -0.01520
C698        C  0.53130828  0.00140828  0.25046196     0.08160
C699        C  0.52647859  0.02149348  0.26871420    -0.01630
C700        C  0.50382939  0.03058747  0.26995384    -0.01640
C701        C  0.48575440  0.02006344  0.25257591     0.08290
C702        C  0.49057865  0.99997952  0.23435427    -0.01830
Br703      Br  0.46660871  0.98494827  0.20962920    -0.00380
Br704      Br  0.51938366  0.96465020  0.20587830    -0.00450
Br705      Br  0.49749583  0.05659262  0.29750489    -0.00410
Br706      Br  0.55046929  0.03665164  0.29327839    -0.00400
C707        C  0.66645820  0.91862144  0.28406845    -0.01520
C708        C  0.64235433  0.92021135  0.28869723     0.08160
C709        C  0.63227464  0.90869303  0.31486596    -0.01630
C710        C  0.64619989  0.89543988  0.33567993    -0.01640
C711        C  0.67042479  0.89469783  0.33164084     0.08290
C712        C  0.68051765  0.90708059  0.30621648    -0.01830
Br713      Br  0.71379509  0.90917312  0.30135593    -0.00380
Br714      Br  0.68037445  0.93179843  0.24661122    -0.00450
Br715      Br  0.63242552  0.88045918  0.37179411    -0.00410
Br716      Br  0.59984503  0.91278885  0.32440968    -0.00400
C717        C  0.98903804  0.02401255  0.26656321    -0.01520
C718        C  0.98413566  0.00170751  0.25428782     0.08160
C719        C  0.00194703  0.98903947  0.23945166    -0.01630
C720        C  0.02432690  0.99865032  0.23668586    -0.01480
C721        C  0.02915070  0.02108971  0.24872276     0.08290
C722        C  0.01133402  0.03370304  0.26364109    -0.01830
Br723      Br  0.01751959  0.06384043  0.28186406    -0.00380
Br724      Br  0.96560000  0.04106868  0.28923643    -0.00450
Br725      Br  0.04795399  0.98119406  0.21478575    -0.00410
Br726      Br  0.99558293  0.95895519  0.22125516    -0.00400
C727        C  0.74081519  0.85515366  0.22333231    -0.01520
C728        C  0.76465620  0.85195481  0.21754527     0.08160
C729        C  0.77997863  0.84770763  0.24318660    -0.01630
C730        C  0.77176685  0.84872236  0.27433400    -0.01640
C731        C  0.74811248  0.85269606  0.28005762     0.08290
C732        C  0.73247680  0.85491139  0.25446524    -0.01830
Br733      Br  0.69945621  0.85723456  0.26144037    -0.00380
Br734      Br  0.71904444  0.85815522  0.18869734    -0.00450
Br735      Br  0.79278146  0.84288178  0.30917610    -0.00410
Br736      Br  0.81238256  0.84037164  0.23669926    -0.00400
C737        C  0.77307082  0.87095279  0.47249624    -0.01520
C738        C  0.74877532  0.87054949  0.46776625     0.08160
C739        C  0.73405432  0.87246873  0.49427237    -0.01630
C740        C  0.74331755  0.87232376  0.02516708    -0.01640
C741        C  0.76761406  0.87144804  0.02997749     0.08290
C742        C  0.78236833  0.87199223  0.50334731    -0.01830
Br743      Br  0.81556802  0.87447723  0.50872551    -0.00380
Br744      Br  0.79415555  0.86806242  0.43726342    -0.00450
Br745      Br  0.72206252  0.87128979  0.06039587    -0.00410
Br746      Br  0.70094781  0.87566952  0.48854511    -0.00400
C747        C  0.86883482  0.90007752  0.15991864    -0.01520
C748        C  0.84623900  0.89435211  0.16974228     0.08160
C749        C  0.83857029  0.90188561  0.19979385    -0.01630
C750        C  0.85373983  0.91344533  0.22053125    -0.01640
C751        C  0.87592329  0.92010944  0.21037431     0.08290
C752        C  0.88343891  0.91344899  0.17981481    -0.01830
Br753      Br  0.91259087  0.92464020  0.16364006    -0.00380
Br754      Br  0.87850677  0.89228592  0.11763492    -0.00450
Br755      Br  0.84411999  0.92011824  0.26331024    -0.00410
Br756      Br  0.80669120  0.89838658  0.21229621    -0.00400
C757        C  0.52379877  0.99504775  0.99799578    -0.01520
C758        C  0.52814623  0.01905342  0.00324220     0.08160
C759        C  0.50905409  0.03424685  0.00618381    -0.01630
C760        C  0.48618553  0.02594674  0.00263862    -0.01640
C761        C  0.48181713  0.00190337  0.99755002     0.08290
C762        C  0.50093063  0.98671088  0.49460924    -0.01830
Br763      Br  0.49645189  0.95440417  0.48342398    -0.00380
Br764      Br  0.54870898  0.97257442  0.49507157    -0.00450
Br765      Br  0.46137526  0.04858725  0.00498404    -0.00410
Br766      Br  0.51361850  0.06648423  0.01767291    -0.00400
C767        C  0.62660812  0.00591160  0.36015664    -0.01520
C768        C  0.60590511  0.99860933  0.34535113     0.08160
C769        C  0.58529320  0.99654990  0.36311754    -0.01630
C770        C  0.58527854  0.00250856  0.39513713    -0.01640
C771        C  0.60579463  0.01025732  0.40972780     0.08290
C772        C  0.62649265  0.01188894  0.39236676    -0.01830
Br773      Br  0.65421290  0.02398926  0.41202898    -0.00380
Br774      Br  0.65535654  0.00685572  0.33698503    -0.00450
Br775      Br  0.55679210  0.00042793  0.41891205    -0.00410
Br776      Br  0.55644563  0.98649145  0.34395177    -0.00400
C777        C  0.59329340  0.01950347  0.11241221    -0.01520
C778        C  0.61414124  0.02259064  0.09559851     0.08160
C779        C  0.63529962  0.01538515  0.10919879    -0.01630
C780        C  0.63556685  0.00511644  0.13950611    -0.01640
C781        C  0.61464571  0.00171763  0.15594326     0.08290
C782        C  0.59357267  0.00914803  0.14240718    -0.01830
Br783      Br  0.56484210  0.00567210  0.16528974    -0.00380
Br784      Br  0.56387014  0.02802454  0.09369102    -0.00450
Br785      Br  0.66432884  0.99487390  0.15799729    -0.00410
Br786      Br  0.66385930  0.02003595  0.08658654    -0.00400
C787        C  0.64420407  0.11959497  0.40693630    -0.01520
C788        C  0.66800815  0.12202512  0.41366992     0.08160
C789        C  0.67727480  0.11142333  0.44112282    -0.01630
C790        C  0.66256780  0.10063119  0.46300024    -0.01640
C791        C  0.63894180  0.09746378  0.45592219     0.08290
C792        C  0.62985423  0.10663855  0.42743271    -0.01830
Br793      Br  0.59853545  0.09948315  0.41462700    -0.00380
Br794      Br  0.63197376  0.13155718  0.36774891    -0.00450
Br795      Br  0.67483679  0.09063369  0.00334685    -0.00410
Br796      Br  0.71030960  0.11025583  0.44881431    -0.00400
C797        C  0.00264228  0.03041312  0.48193939    -0.01520
C798        C  0.98359607  0.01653533  0.49126889     0.08160
C799        C  0.98790558  0.99314365  0.00031955    -0.01630
C800        C  0.01078501  0.98506370  0.00429872    -0.01640
C801        C  0.02977770  0.99907631  0.49559625     0.08290
C802        C  0.02541586  0.02153322  0.48321650    -0.01830
Br803      Br  0.05025517  0.04021769  0.46593126    -0.00380
Br804      Br  0.99797237  0.06121003  0.46485931    -0.00450
Br805      Br  0.01565540  0.95515914  0.02399781    -0.00410
Br806      Br  0.96313715  0.97090363  0.00629739    -0.00400
C807        C  0.88740629  0.01560321  0.14391357    -0.01520
C808        C  0.90719898  0.00521915  0.15751716     0.08160
C809        C  0.92693265  0.00078337  0.13877613    -0.01630
C810        C  0.92636229  0.00537322  0.10640441    -0.01640
C811        C  0.90660730  0.01544919  0.09272632     0.08290
C812        C  0.88728403  0.02103294  0.11149180    -0.01830
Br813      Br  0.86139253  0.03747748  0.09322359    -0.00380
Br814      Br  0.86035872  0.02208626  0.16910786    -0.00450
Br815      Br  0.95290261  0.99785159  0.08071709    -0.00410
Br816      Br  0.95567442  0.98993484  0.15737471    -0.00400
C817        C  0.88234529  0.99204086  0.36767567    -0.01520
C818        C  0.89038166  0.00553612  0.34230036     0.08160
C819        C  0.89586503  0.02906425  0.34743512    -0.01630
C820        C  0.89603492  0.03828634  0.37830640    -0.01640
C821        C  0.89045884  0.02402956  0.40462294     0.08290
C822        C  0.88179365  0.00130532  0.39857971    -0.01830
Br823      Br  0.86900116  0.98210746  0.43168855    -0.00380
Br824      Br  0.87177160  0.96075647  0.35977139    -0.00450
Br825      Br  0.90394010  0.07072258  0.38332098    -0.00410
Br826      Br  0.90487033  0.04854551  0.31237038    -0.00400
C827        C  0.76756591  0.17079690  0.47526052    -0.01520
C828        C  0.74407736  0.16602826  0.46920018     0.08160
C829        C  0.72851782  0.16313023  0.49461108    -0.01630
C830        C  0.73699255  0.16198577  0.02574253    -0.01640
C831        C  0.76071246  0.16604447  0.03186544     0.08290
C832        C  0.77573881  0.17169428  0.00649242    -0.01830
Br833      Br  0.80768971  0.18086672  0.01333129    -0.00380
Br834      Br  0.78832939  0.17801690  0.44076801    -0.00450
Br835      Br  0.71553143  0.15619352  0.05987150    -0.00410
Br836      Br  0.69544185  0.16157713  0.48748766    -0.00400
C837        C  0.78231072  0.14821608  0.24666521    -0.01520
C838        C  0.76761725  0.14515209  0.22006514     0.08160
C839        C  0.74383941  0.14009236  0.22525749    -0.01630
C840        C  0.73474384  0.14027698  0.25617964    -0.01640
C841        C  0.74897260  0.14605261  0.28218677     0.08290
C842        C  0.77297411  0.14922608  0.27739883    -0.01830
Br843      Br  0.79314654  0.15708397  0.31237654    -0.00380
Br844      Br  0.81553603  0.15064640  0.24170567    -0.00450
Br845      Br  0.70257155  0.13234605  0.26294335    -0.00410
Br846      Br  0.72271524  0.13419763  0.19058877    -0.00400
C847        C  0.88293432  0.10722739  0.07272871    -0.01520
C848        C  0.87642298  0.10110780  0.04152844     0.08160
C849        C  0.85458080  0.10783913  0.03003562    -0.01630
C850        C  0.83872529  0.11898751  0.05002886    -0.01640
C851        C  0.84538659  0.12599607  0.08080662     0.08290
C852        C  0.86768360  0.12023197  0.09199267    -0.01830
Br853      Br  0.87604313  0.12744688  0.13504235    -0.00380
Br854      Br  0.91148651  0.09557356  0.09039914    -0.00450
Br855      Br  0.80727157  0.12259200  0.03546464    -0.00410
Br856      Br  0.84628674  0.10149797  0.48656483    -0.00400
C857        C  0.00513263  0.48239678  0.24913001    -0.01520
C858        C  0.98560153  0.49710194  0.24665981     0.08160
C859        C  0.98927359  0.52153941  0.24735184    -0.01630
C860        C  0.01183276  0.53093178  0.24942919    -0.01640
C861        C  0.03139922  0.51621363  0.25069553     0.08290
C862        C  0.02772668  0.49179191  0.25131171    -0.01830
Br863      Br  0.05326525  0.47038418  0.25720035    -0.00380
Br864      Br  0.00138377  0.44907009  0.25152374    -0.00450
Br865      Br  0.01525236  0.56439506  0.24980151    -0.00410
Br866      Br  0.96388656  0.54329952  0.24452704    -0.00400
C867        C  0.73927402  0.27875603  0.37699554    -0.01520
C868        C  0.76367089  0.28233233  0.37536099     0.08160
C869        C  0.77823361  0.26285296  0.37103778    -0.01630
C870        C  0.76862778  0.24056400  0.36699600    -0.01640
C871        C  0.74437442  0.23692875  0.36942269     0.08290
C872        C  0.72980407  0.25623770  0.37443592    -0.01830
Br873      Br  0.69672842  0.25215925  0.37951258    -0.00380
Br874      Br  0.71804838  0.30420083  0.38457964    -0.00450
Br875      Br  0.78929359  0.21536471  0.35600051    -0.00410
Br876      Br  0.81164698  0.26593498  0.37014870    -0.00400
C877        C  0.86299471  0.38081128  0.31188279    -0.01520
C878        C  0.84644092  0.39183841  0.33161421     0.08160
C879        C  0.84322854  0.41608356  0.32846219    -0.01630
C880        C  0.85426386  0.42851627  0.30416672    -0.01640
C881        C  0.87128631  0.41771334  0.28505670     0.08290
C882        C  0.87564749  0.39381117  0.28928884    -0.01830
Br883      Br  0.89762493  0.37837275  0.26219601    -0.00380
Br884      Br  0.86804044  0.34776805  0.31418827    -0.00450
Br885      Br  0.84633779  0.46102811  0.29915001    -0.00410
Br886      Br  0.82522761  0.43336607  0.35919498    -0.00400
C887        C  0.52657930  0.52480656  0.25350505    -0.01520
C888        C  0.53130185  0.50096033  0.24815923     0.08160
C889        C  0.51271157  0.48582495  0.24130216    -0.01630
C890        C  0.48973513  0.49411816  0.24088197    -0.01640
C891        C  0.48495667  0.51789521  0.24672577     0.08290
C892        C  0.50359999  0.53310899  0.25313775    -0.01830
Br893      Br  0.49797101  0.56524589  0.26392600    -0.00380
Br894      Br  0.55122193  0.54672118  0.26228349    -0.00450
Br895      Br  0.46518046  0.47229447  0.23131181    -0.00410
Br896      Br  0.51853023  0.45383625  0.22994328    -0.00400
C897        C  0.73701151  0.26332873  0.10692487    -0.01520
C898        C  0.74570620  0.28086161  0.12695544     0.08160
C899        C  0.76396905  0.27554328  0.14824736    -0.01630
C900        C  0.77373843  0.25314048  0.14891656    -0.01640
C901        C  0.76512030  0.23566898  0.12877506     0.08290
C902        C  0.74669434  0.24090880  0.10775268    -0.01830
Br903      Br  0.73541704  0.21791643  0.07822248    -0.00380
Br904      Br  0.71259289  0.27009110  0.07695743    -0.00450
Br905      Br  0.79827502  0.24622517  0.17859453    -0.00410
Br906      Br  0.77490363  0.29840242  0.17826082    -0.00400
C907        C  0.73132254  0.36047320  0.24443186    -0.01520
C908        C  0.74779448  0.36124476  0.21964575     0.08160
C909        C  0.77149424  0.36397268  0.22669388    -0.01630
C910        C  0.77876845  0.36508535  0.25828177    -0.01640
C911        C  0.76247148  0.36318083  0.28293444     0.08290
C912        C  0.73870632  0.36155910  0.27603302    -0.01830
Br913      Br  0.71633433  0.35906208  0.30979165    -0.00380
Br914      Br  0.69848868  0.35766890  0.23584135    -0.00450
Br915      Br  0.81127721  0.36921646  0.26759156    -0.00410
Br916      Br  0.79447419  0.36394972  0.19353104    -0.00400
C917        C  0.77155809  0.37140939  0.02699960    -0.01520
C918        C  0.74728906  0.37015345  0.03174469     0.08160
C919        C  0.73238593  0.37147228  0.00523577    -0.01630
C920        C  0.74151578  0.37155125  0.47436363    -0.01640
C921        C  0.76578753  0.37148609  0.46957703     0.08290
C922        C  0.78065737  0.37262814  0.99613382    -0.01830
Br923      Br  0.81370374  0.37621953  0.99049590    -0.00380
Br924      Br  0.79296684  0.36952818  0.06218634    -0.00450
Br925      Br  0.72023381  0.36965464  0.43905115    -0.00410
Br926      Br  0.69921946  0.37359967  0.01086969    -0.00400
C927        C  0.64477416  0.39381369  0.16561202    -0.01520
C928        C  0.66913512  0.39420841  0.16807216     0.08160
C929        C  0.67961591  0.40754920  0.19237974    -0.01630
C930        C  0.66595419  0.41895309  0.21498353    -0.01640
C931        C  0.64166350  0.41982358  0.21154774     0.08290
C932        C  0.63109831  0.40719002  0.18654582    -0.01830
Br933      Br  0.59823167  0.40967976  0.17864819    -0.00380
Br934      Br  0.63030556  0.37695487  0.13144151    -0.00450
Br935      Br  0.68084934  0.43288008  0.25143580    -0.00410
Br936      Br  0.71288564  0.41119474  0.19513994    -0.00400
C937        C  0.52738501  0.49265618  0.49384999    -0.01520
C938        C  0.53106292  0.51698085  0.49608089     0.08160
C939        C  0.51163046  0.53155242  0.00053952    -0.01630
C940        C  0.48912418  0.52205711  0.00294000    -0.01640
C941        C  0.48561062  0.49760287  0.00235122     0.08290
C942        C  0.50511969  0.48306182  0.49830267    -0.01830
Br943      Br  0.50219815  0.44965552  0.50062789    -0.00380
Br944      Br  0.55236326  0.47179001  0.48264188    -0.00450
Br945      Br  0.46341435  0.54357473  0.00604945    -0.00410
Br946      Br  0.51526590  0.56482539  0.00438751    -0.00400
C947        C  0.63132758  0.51384933  0.10841836    -0.01520
C948        C  0.61193394  0.50932260  0.08916564     0.08160
C949        C  0.59203048  0.49890672  0.10189512    -0.01630
C950        C  0.59078283  0.49445879  0.13428737    -0.01640
C951        C  0.61017247  0.49896158  0.15388559     0.08290
C952        C  0.63063701  0.50826970  0.14075884    -0.01830
Br953      Br  0.65785100  0.51314378  0.16652539    -0.00380
Br954      Br  0.65813113  0.52912866  0.09092868    -0.00450
Br955      Br  0.56144993  0.48421882  0.15160625    -0.00410
Br956      Br  0.56614145  0.49095972  0.07480487    -0.00400
C957        C  0.63768438  0.51317311  0.39192544    -0.01520
C958        C  0.61731480  0.52334421  0.40418252     0.08160
C959        C  0.59704075  0.52394507  0.38537974    -0.01630
C960        C  0.59701500  0.51401834  0.35510200    -0.01640
C961        C  0.61727764  0.50392123  0.34285667     0.08290
C962        C  0.63768923  0.50363798  0.36113078    -0.01830
Br963      Br  0.66513874  0.48918733  0.34443450    -0.00380
Br964      Br  0.66563528  0.51265786  0.41695383    -0.00450
Br965      Br  0.56874178  0.51361175  0.33057815    -0.00410
Br966      Br  0.56844291  0.53677959  0.40154553    -0.00400
C967        C  0.77073661  0.74204147  0.13856232    -0.01520
C968        C  0.74799320  0.73757087  0.12741826     0.08160
C969        C  0.73549610  0.75558031  0.11255745    -0.01630
C970        C  0.74568498  0.77762462  0.10855001    -0.01640
C971        C  0.76841856  0.78212742  0.11978519     0.08290
C972        C  0.78092919  0.76408668  0.13459110    -0.01830
Br973      Br  0.81173522  0.76950983  0.15107593    -0.00380
Br974      Br  0.78776135  0.71841870  0.16129137    -0.00450
Br975      Br  0.72858471  0.80121085  0.08582020    -0.00410
Br976      Br  0.70466552  0.75009121  0.09620599    -0.00400
C977        C  0.63212047  0.60288053  0.07906462    -0.01520
C978        C  0.63495363  0.60199624  0.04589043     0.08160
C979        C  0.65159419  0.61622034  0.03146604    -0.01630
C980        C  0.66573385  0.63075869  0.05002848    -0.01640
C981        C  0.66365833  0.63105033  0.08328339     0.08290
C982        C  0.64655982  0.61727864  0.09771652    -0.01830
Br983      Br  0.64406717  0.61707708  0.14311038    -0.00380
Br984      Br  0.61001817  0.58270205  0.09926304    -0.00450
Br985      Br  0.68903128  0.64912881  0.02967153    -0.00410
Br986      Br  0.65565888  0.61493808  0.48619160    -0.00400
C987        C  0.99544273  0.50569106  0.02664337    -0.01520
C988        C  0.98746189  0.52153512  0.50360658     0.08160
C989        C  0.00124954  0.52602317  0.47682412    -0.01630
C990        C  0.02214761  0.51391786  0.47233658    -0.01640
C991        C  0.03030196  0.49846259  0.49554892     0.08290
C992        C  0.01700234  0.49452946  0.02288913    -0.01830
Br993      Br  0.02869606  0.47434014  0.05557297    -0.00380
Br994      Br  0.97728807  0.50007846  0.06410287    -0.00450
Br995      Br  0.03882203  0.51712814  0.43321364    -0.00410
Br996      Br  0.99143866  0.54829196  0.44563971    -0.00400
C997        C  0.90136658  0.48852622  0.39767918    -0.01520
C998        C  0.91310436  0.50940627  0.40467169     0.08160
C999        C  0.92401749  0.52177621  0.37980803    -0.01630
C1000       C  0.91984072  0.51544341  0.34833851    -0.01640
C1001       C  0.90829975  0.49463848  0.34142400     0.08290
C1002       C  0.90050827  0.48043570  0.36633581    -0.01830
Br1003     Br  0.89024268  0.44929395  0.35822704    -0.00380
Br1004     Br  0.88814488  0.46974390  0.43089413    -0.00450
Br1005     Br  0.93143605  0.53468043  0.31464111    -0.00410
Br1006     Br  0.94600796  0.54656567  0.38731176    -0.00400
C1007       C  0.88155512  0.50173735  0.09978334    -0.01520
C1008       C  0.89681422  0.52012944  0.09186371     0.08160
C1009       C  0.91177187  0.52906806  0.11559012    -0.01630
C1010       C  0.91193469  0.51926911  0.14601118    -0.01640
C1011       C  0.89752252  0.50039717  0.15341215     0.08290
C1012       C  0.88215772  0.49176341  0.13034287    -0.01830
Br1013     Br  0.86206093  0.46621256  0.14081338    -0.00380
Br1014     Br  0.85930430  0.49040803  0.06934077    -0.00450
Br1015     Br  0.93362497  0.53048625  0.17705203    -0.00410
Br1016     Br  0.93401802  0.55334837  0.10665182    -0.00400
C1017       C  0.74416967  0.73981213  0.36366224    -0.01520
C1018       C  0.76725406  0.73590095  0.37380845     0.08160
C1019       C  0.78018974  0.75454082  0.38638395    -0.01630
C1020       C  0.77010496  0.77670150  0.38916318    -0.01640
C1021       C  0.74702030  0.78064835  0.37896789     0.08290
C1022       C  0.73409753  0.76199932  0.36634355    -0.01830
Br1023     Br  0.70292468  0.76679265  0.35089024    -0.00380
Br1024     Br  0.72647655  0.71517889  0.34397354    -0.00450
Br1025     Br  0.78794330  0.80128961  0.40872322    -0.00410
Br1026     Br  0.81153135  0.74981119  0.40128969    -0.00400
C1027       C  0.74597973  0.67185224  0.47541267    -0.01520
C1028       C  0.76222812  0.65507871  0.46665730     0.08160
C1029       C  0.77287873  0.64114356  0.48961062    -0.01630
C1030       C  0.76751172  0.64411939  0.02179193    -0.01640
C1031       C  0.75092679  0.66101211  0.03110477     0.08290
C1032       C  0.74089399  0.67556839  0.00739633    -0.01830
Br1033     Br  0.72147010  0.70217211  0.01685879    -0.00380
Br1034     Br  0.73110420  0.69026222  0.44292393    -0.00450
Br1035     Br  0.78508092  0.62630835  0.05224418    -0.00410
Br1036     Br  0.79527747  0.61822677  0.47651133    -0.00400
C1037       C  0.78249220  0.64658820  0.25474661    -0.01520
C1038       C  0.76789198  0.64695117  0.28148958     0.08160
C1039       C  0.74359368  0.64582964  0.27694059    -0.01630
C1040       C  0.73412525  0.64566706  0.24612187    -0.01640
C1041       C  0.74869292  0.64742191  0.21942618     0.08290
C1042       C  0.77301705  0.64726312  0.22396165    -0.01830
Br1043     Br  0.79385134  0.65007639  0.18847851    -0.00380
Br1044     Br  0.81572326  0.64487820  0.26005280    -0.00450
Br1045     Br  0.70097495  0.64278101  0.24072946    -0.00410
Br1046     Br  0.72272378  0.64651513  0.31258691    -0.00400
C1047       C  0.86633831  0.61400563  0.39960335    -0.01520
C1048       C  0.85474246  0.63239368  0.41447158     0.08160
C1049       C  0.85789618  0.63596663  0.44731709    -0.01630
C1050       C  0.87107583  0.62006757  0.46541642    -0.01640
C1051       C  0.88143005  0.60077737  0.45070649     0.08290
C1052       C  0.87930823  0.59815437  0.41763355    -0.01830
Br1053     Br  0.89299684  0.57204489  0.39681034    -0.00380
Br1054     Br  0.86412955  0.61047354  0.35427941    -0.00450
Br1055     Br  0.87275787  0.62314289  0.01072678    -0.00410
Br1056     Br  0.84262849  0.66148977  0.46807385    -0.00400
O1057       O  0.76543132  0.64512315  0.91160894    -0.57490
C1058       C  0.77783013  0.65111412  0.81362913     0.75140
O1059       O  0.79777622  0.70735761  0.86614846    -0.58640
C1060       C  0.77242926  0.65685223  0.93523628     0.75110
C1061       C  0.83567316  0.64425368  0.89737879     0.77510
Cd1062     Cd  0.79309947  0.66495133  0.87597211     1.37460
O1063       O  0.76983536  0.64154638  0.83828845    -0.57480
O1064       O  0.81899274  0.63255171  0.88621956    -0.56290
C1065       C  0.77693526  0.71200260  0.87357574     0.77470
O1066       O  0.83432336  0.66612191  0.89458057    -0.58670
O1067       O  0.79420466  0.66544726  0.81793436    -0.57120
O1068       O  0.78838240  0.67144987  0.93082965    -0.57110
O1069       O  0.76444719  0.69500438  0.88148416    -0.56280
O1070       O  0.89682574  0.51661215  0.95638558    -0.57490
C1071       C  0.89942587  0.52822654  0.55850001     0.75140
O1072       O  0.95744332  0.55105971  0.00143848    -0.58640
C1073       C  0.91369619  0.51864803  0.93731252     0.75110
C1074       C  0.89249327  0.58198842  0.96949738     0.77510
Cd1075     Cd  0.91519135  0.54172871  0.99650839     1.37460
O1076       O  0.89790552  0.51446624  0.53520862    -0.57480
O1077       O  0.88311044  0.56218797  0.97098792    -0.56290
C1078       C  0.96318003  0.52983182  0.50437156     0.77470
O1079       O  0.91198300  0.58426374  0.98332619    -0.58670
O1080       O  0.90513123  0.54887709  0.55191887    -0.57120
O1081       O  0.93097297  0.52993381  0.94713348    -0.57110
O1082       O  0.94686590  0.51527150  0.50596301    -0.56280
O1083       O  0.74924104  0.64884590  0.58636354    -0.57490
C1084       C  0.73862201  0.65187585  0.68743964     0.75140
O1085       O  0.71743727  0.70879473  0.63453899    -0.58640
C1086       C  0.74290729  0.66267160  0.56458599     0.75110
C1087       C  0.68184517  0.64284294  0.60231548     0.77510
Cd1088     Cd  0.72283778  0.66628137  0.62562073     1.37470
O1089       O  0.74718301  0.64337712  0.66239032    -0.57480
O1090       O  0.70044972  0.63233584  0.60894148    -0.56290
C1091       C  0.73853273  0.71353885  0.62840448     0.77470
O1092       O  0.68065383  0.66404729  0.61044346    -0.58670
O1093       O  0.72153745  0.66541503  0.68369594    -0.57120
O1094       O  0.72825922  0.67773141  0.57261453    -0.57110
O1095       O  0.75152140  0.69651325  0.62215170    -0.56280
O1096       O  0.62337998  0.51513725  0.53504050    -0.57490
C1097       C  0.61590711  0.53137629  0.93738894     0.75140
O1098       O  0.56029397  0.54741700  0.98886362    -0.58640
C1099       C  0.60999807  0.51993848  0.55798943     0.75110
C1100       C  0.62351036  0.58351990  0.52720587     0.77510
Cd1101     Cd  0.60262292  0.54272808  0.00056528     1.37460
O1102       O  0.62189915  0.51851478  0.96030928    -0.57480
O1103       O  0.63529644  0.56687875  0.51622777    -0.56290
C1104       C  0.55523772  0.52661699  0.99614846     0.77470
O1105       O  0.60177671  0.58288917  0.52243872    -0.58670
O1106       O  0.60664040  0.55063313  0.94432414    -0.57120
O1107       O  0.59412169  0.53461974  0.55340415    -0.57110
O1108       O  0.57213912  0.51420707  0.00456273    -0.56280
O1109       O  0.74810468  0.37011454  0.66401986    -0.57490
C1110       C  0.73762371  0.36551302  0.56378433     0.75140
O1111       O  0.71521308  0.30980568  0.62260491    -0.58640
C1112       C  0.74022649  0.35801918  0.68671655     0.75110
C1113       C  0.68413572  0.37995682  0.64707091     0.77510
Cd1114     Cd  0.72197710  0.35228992  0.62548188     1.37470
O1115       O  0.74674624  0.37373918  0.58871091    -0.57480
O1116       O  0.70226039  0.38855424  0.63515539    -0.56290
C1117       C  0.73672781  0.30498190  0.62486982     0.77470
O1118       O  0.68099330  0.35831751  0.64279661    -0.58670
O1119       O  0.72022966  0.35231502  0.56766647    -0.57120
O1120       O  0.72519367  0.34287135  0.68004140    -0.57110
O1121       O  0.75061202  0.32197471  0.62560906    -0.56280
O1122       O  0.62374478  0.50346866  0.78682572    -0.57490
C1123       C  0.60897951  0.49241151  0.68739636     0.75140
O1124       O  0.60760538  0.43512445  0.73849757    -0.58640
C1125       C  0.61606781  0.49324190  0.81122102     0.75110
C1126       C  0.55558798  0.49211556  0.74895464     0.77510
Cd1127     Cd  0.60318446  0.47739406  0.74969759     1.37460
O1128       O  0.61727397  0.50482830  0.70968928    -0.57480
O1129       O  0.57218237  0.50457083  0.73958237    -0.56290
C1130       C  0.62853549  0.43764988  0.72966687     0.77470
O1131       O  0.56097606  0.47197950  0.75887999    -0.58670
O1132       O  0.59892206  0.47375975  0.69494879    -0.57120
O1133       O  0.60492281  0.47455055  0.80698688    -0.57110
O1134       O  0.63769688  0.45723665  0.73503304    -0.56280
O1135       O  0.76312238  0.37177065  0.83859905    -0.57490
C1136       C  0.77548211  0.36748650  0.93741462     0.75140
O1137       O  0.79425683  0.31101448  0.88464222    -0.58640
C1138       C  0.77075833  0.35997272  0.81539200     0.75110
C1139       C  0.82937580  0.37833108  0.85104164     0.77510
Cd1140     Cd  0.79011049  0.35335822  0.87536871     1.37470
O1141       O  0.76631941  0.37589214  0.91267212    -0.57480
O1142       O  0.80959172  0.38676317  0.85626873    -0.56290
C1143       C  0.77354147  0.30637125  0.87628703     0.77470
O1144       O  0.83257593  0.35782797  0.86135227    -0.58670
O1145       O  0.79275303  0.35429663  0.93318665    -0.57120
O1146       O  0.78611368  0.34484661  0.82100447    -0.57110
O1147       O  0.76145596  0.32354812  0.86794408    -0.56280
O1148       O  0.89810847  0.49711957  0.78627969    -0.57490
C1149       C  0.90030680  0.48904099  0.68464619     0.75140
O1150       O  0.95648567  0.46722515  0.73423065    -0.58640
C1151       C  0.90828073  0.48627669  0.80861765     0.75110
C1152       C  0.88623294  0.43251511  0.76441035     0.77510
Cd1153     Cd  0.91385875  0.47117112  0.74546563     1.37460
O1154       O  0.89448826  0.49917954  0.71010728    -0.57480
O1155       O  0.87787252  0.44980781  0.74994481    -0.56290
C1156       C  0.96145858  0.48724496  0.74522960     0.77470
O1157       O  0.90817196  0.43033588  0.76336726    -0.58670
O1158       O  0.91062634  0.46969777  0.68731835    -0.57120
O1159       O  0.92004940  0.46858937  0.80137725    -0.57110
O1160       O  0.94449216  0.49871393  0.75553830    -0.56280
O1161       O  0.76307658  0.15038147  0.58481111    -0.57490
C1162       C  0.77652353  0.14992701  0.68749540     0.75140
O1163       O  0.83193369  0.15902902  0.61132624    -0.58640
C1164       C  0.76971719  0.16530844  0.56458098     0.75110
C1165       C  0.77459715  0.21173234  0.63002788     0.77510
Cd1166     Cd  0.79007237  0.16481789  0.62535404     1.37470
O1167       O  0.76735511  0.14136595  0.66279401    -0.57480
O1168       O  0.76099316  0.19449122  0.63040955    -0.56290
C1169       C  0.82839326  0.13861322  0.60079830     0.77470
O1170       O  0.79627620  0.20732835  0.62985761    -0.58670
O1171       O  0.79311166  0.16395507  0.68289505    -0.57120
O1172       O  0.78486801  0.17968789  0.57353945    -0.57110
O1173       O  0.80865846  0.12991008  0.60603374    -0.56280
O1174       O  0.88942845  0.02100172  0.96205025    -0.57490
C1175       C  0.90816008  0.02374643  0.56022836     0.75140
O1176       O  0.95555917  0.04808514  0.99565976    -0.58640
C1177       C  0.89617251  0.03183655  0.93768281     0.75110
C1178       C  0.88946130  0.08322587  0.52379938     0.77510
Cd1179     Cd  0.91292277  0.04329265  0.99998895     1.37460
O1180       O  0.89482549  0.01672834  0.53821892    -0.57480
O1181       O  0.87930450  0.06467894  0.51579703    -0.56290
C1182       C  0.95958035  0.02648401  0.99267207     0.77470
O1183       O  0.91086967  0.08488694  0.51700512    -0.58670
O1184       O  0.92347956  0.03852902  0.55339701    -0.57120
O1185       O  0.90940806  0.04897554  0.94303309    -0.57110
O1186       O  0.94186213  0.01361749  0.99201398    -0.56280
O1187       O  0.74765526  0.14439430  0.83929885    -0.57490
C1188       C  0.73585111  0.16517513  0.93630150     0.75140
O1189       O  0.71471051  0.20728495  0.85984784    -0.58640
C1190       C  0.73843843  0.15098987  0.81352110     0.75110
C1191       C  0.68347142  0.13633894  0.89359071     0.77510
Cd1192     Cd  0.72026922  0.16548788  0.87326771     1.37460
O1193       O  0.74614630  0.15312056  0.91533074    -0.57480
O1194       O  0.70291248  0.12852829  0.88489960    -0.56290
C1195       C  0.73495927  0.21278265  0.86953953     0.77470
O1196       O  0.67912785  0.15747045  0.88702714    -0.58670
O1197       O  0.71846526  0.17696474  0.92765160    -0.57120
O1198       O  0.72005624  0.16294317  0.81575409    -0.57110
O1199       O  0.74718784  0.19640094  0.88022781    -0.56280
O1200       O  0.61988533  0.01910430  0.53976305    -0.57490
C1201       C  0.60437650  0.02011077  0.94145309     0.75140
O1202       O  0.55762047  0.04909733  0.49729106    -0.58640
C1203       C  0.61288289  0.03130495  0.56281307     0.75110
C1204       C  0.62552486  0.08050391  0.97477682     0.77510
Cd1205     Cd  0.60001552  0.04252413  0.49978543     1.37470
O1206       O  0.61693385  0.01329043  0.96438806    -0.57480
O1207       O  0.63445851  0.06106566  0.98139803    -0.56290
C1208       C  0.55244750  0.02823398  0.50405647     0.77470
O1209       O  0.60474435  0.08384442  0.98370543    -0.58670
O1210       O  0.59016092  0.03629390  0.94654355    -0.57120
O1211       O  0.60271327  0.05024362  0.55628815    -0.57110
O1212       O  0.56937666  0.01525470  0.51061412    -0.56280
O1213       O  0.76822684  0.87551330  0.58706072    -0.57490
C1214       C  0.77349944  0.85258241  0.68487758     0.75140
O1215       O  0.79898261  0.81118688  0.61433766    -0.58640
C1216       C  0.77742271  0.86735783  0.56219834     0.75110
C1217       C  0.83006311  0.88101626  0.64912727     0.77510
Cd1218     Cd  0.79282784  0.85337791  0.62393927     1.37470
O1219       O  0.76612066  0.86704490  0.66442518    -0.57480
O1220       O  0.81036129  0.88922051  0.64227874    -0.56290
C1221       C  0.77771852  0.80624484  0.61929362     0.77470
O1222       O  0.83425009  0.86045264  0.63964514    -0.58670
O1223       O  0.78914052  0.83866630  0.67616261    -0.57120
O1224       O  0.79493812  0.85441705  0.56630403    -0.57110
O1225       O  0.76437486  0.82312138  0.62504685    -0.56280
O1226       O  0.89917330  0.00853778  0.71341203    -0.57490
C1227       C  0.89541166  0.99473026  0.81122753     0.75140
O1228       O  0.91005604  0.93685197  0.73536432    -0.58640
C1229       C  0.90727687  0.99698878  0.69033247     0.75110
C1230       C  0.95993845  0.99290081  0.75435352     0.77510
Cd1231     Cd  0.91220330  0.97861129  0.75136661     1.37470
O1232       O  0.88861078  0.00367466  0.78545028    -0.57480
O1233       O  0.94350647  0.00611182  0.74637757    -0.56290
C1234       C  0.88859258  0.93812316  0.72867018     0.77470
O1235       O  0.95446903  0.97221120  0.76173130    -0.58670
O1236       O  0.90809793  0.97684071  0.80913099    -0.57120
O1237       O  0.91627988  0.97759307  0.69647791    -0.57110
O1238       O  0.87822982  0.95651076  0.73687268    -0.56280
O1239       O  0.61561349  0.00347298  0.79030826    -0.57490
C1240       C  0.61405781  0.99105810  0.68764265     0.75140
O1241       O  0.60835614  0.93427620  0.76040962    -0.58640
C1242       C  0.60569020  0.99175758  0.81194497     0.75110
C1243       C  0.55529878  0.99196950  0.74904107     0.77510
Cd1244     Cd  0.60231338  0.97621811  0.74958526     1.37460
O1245       O  0.62277744  0.00114012  0.71161298    -0.57480
O1246       O  0.57256012  0.00546687  0.74871778    -0.56290
C1247       C  0.62896667  0.93766246  0.77032472     0.77470
O1248       O  0.55974558  0.97032624  0.74825773    -0.58670
O1249       O  0.60269954  0.97252861  0.69243678    -0.57120
O1250       O  0.59503813  0.97356852  0.80379418    -0.57110
O1251       O  0.63751271  0.95763089  0.76570224    -0.56280
O1252       O  0.74914654  0.86512579  0.83427594    -0.57490
C1253       C  0.73881606  0.86582813  0.93582386     0.75140
O1254       O  0.68153704  0.85900637  0.85803575    -0.58640
C1255       C  0.73959865  0.85291676  0.81273245     0.75110
C1256       C  0.73756663  0.80466142  0.87867677     0.77510
Cd1257     Cd  0.72241161  0.85171373  0.87472116     1.37470
O1258       O  0.74784366  0.87366231  0.91065483    -0.57480
O1259       O  0.75050288  0.82139963  0.87085473    -0.56290
C1260       C  0.68555437  0.88034320  0.85240329     0.77470
O1261       O  0.71659503  0.80963718  0.88543626    -0.58670
O1262       O  0.72123339  0.85282188  0.93233836    -0.57120
O1263       O  0.72252773  0.84042047  0.82050990    -0.57110
O1264       O  0.70443064  0.88845958  0.86292628    -0.56280
O1265       O  0.39377179  0.00614156  0.53909449    -0.57490
C1266       C  0.39779973  0.99160132  0.93854244     0.75140
O1267       O  0.45238474  0.97166784  0.50273956    -0.58640
C1268       C  0.40703515  0.99872237  0.56095043     0.75110
C1269       C  0.38442965  0.93948762  0.52399014     0.77510
Cd1270     Cd  0.40997669  0.97829025  0.50109571     1.37470
O1271       O  0.39096768  0.00349167  0.96201022    -0.57480
O1272       O  0.37607199  0.95964142  0.52080488    -0.56290
C1273       C  0.45750060  0.99269907  0.99687464     0.77470
O1274       O  0.40457457  0.93615209  0.51265704    -0.58670
O1275       O  0.40690616  0.97202921  0.94443508    -0.57120
O1276       O  0.42108704  0.98269138  0.55426394    -0.57110
O1277       O  0.44049287  0.00581695  0.99135056    -0.56280
O1278       O  0.26559128  0.87639400  0.66444226    -0.57490
C1279       C  0.27208576  0.86064845  0.56637918     0.75140
O1280       O  0.33117050  0.85952688  0.60860232    -0.58640
C1281       C  0.27467733  0.86787788  0.68920403     0.75110
C1282       C  0.27570346  0.80746341  0.63000577     0.77510
Cd1283     Cd  0.29046721  0.85475658  0.62752787     1.37470
O1284       O  0.26428621  0.87277855  0.58914664    -0.57480
O1285       O  0.26287261  0.82400313  0.62113108    -0.56290
C1286       C  0.32895904  0.88139057  0.60588004     0.77470
O1287       O  0.29631909  0.81278993  0.63820777    -0.58670
O1288       O  0.28711665  0.84547936  0.57299194    -0.57120
O1289       O  0.29183680  0.85451549  0.68497393    -0.57110
O1290       O  0.31163945  0.89041389  0.61932561    -0.56280
O1291       O  0.39305320  0.02200152  0.79001012    -0.57490
C1292       C  0.41015152  0.02748745  0.69048602     0.75140
O1293       O  0.41034289  0.08691734  0.73648237    -0.58640
C1294       C  0.40155890  0.03228262  0.81393689     0.75110
C1295       C  0.46180186  0.02960283  0.75366953     0.77510
Cd1296     Cd  0.41478425  0.04542742  0.75171307     1.37470
O1297       O  0.40066961  0.01660809  0.71322869    -0.57480
O1298       O  0.44449589  0.01617413  0.75410366    -0.56290
C1299       C  0.38909213  0.08417129  0.72915814     0.77470
O1300       O  0.45742569  0.05125911  0.75385818    -0.58670
O1301       O  0.42108717  0.04579766  0.69715541    -0.57120
O1302       O  0.41373964  0.05024885  0.80892155    -0.57110
O1303       O  0.37978751  0.06507319  0.73678403    -0.56280
O1304       O  0.26370281  0.15122313  0.66618348    -0.57490
C1305       C  0.27514548  0.15162547  0.56406786     0.75140
O1306       O  0.29824478  0.20827608  0.62624207    -0.58640
C1307       C  0.27054402  0.16576120  0.68686265     0.75110
C1308       C  0.32819033  0.13844693  0.64958233     0.77510
Cd1309     Cd  0.29052611  0.16588436  0.62582838     1.37460
O1310       O  0.26573956  0.14389934  0.58902414    -0.57480
O1311       O  0.30829104  0.13025184  0.64386915    -0.56290
C1312       C  0.27728163  0.21359992  0.62008495     0.77470
O1313       O  0.33229549  0.15878462  0.63922337    -0.58670
O1314       O  0.29301510  0.16415962  0.56814235    -0.57120
O1315       O  0.28505025  0.18074393  0.67800985    -0.57110
O1316       O  0.26393284  0.19676429  0.61408893    -0.56280
O1317       O  0.24826655  0.15238893  0.83877051    -0.57490
C1318       C  0.23541870  0.15326534  0.93805488     0.75140
O1319       O  0.21429089  0.21119334  0.87370181    -0.58640
C1320       C  0.24011987  0.16439778  0.81611926     0.75110
C1321       C  0.18113927  0.14239846  0.85519279     0.77510
Cd1322     Cd  0.22027387  0.16852988  0.87670928     1.37460
O1323       O  0.24448356  0.14559244  0.91284532    -0.57480
O1324       O  0.20165296  0.13486292  0.85684946    -0.56290
C1325       C  0.23534925  0.21591351  0.87997019     0.77470
O1326       O  0.17753270  0.16231596  0.86728996    -0.58670
O1327       O  0.21778505  0.16620268  0.93464698    -0.57120
O1328       O  0.22406649  0.17851518  0.82241752    -0.57110
O1329       O  0.24781948  0.19871331  0.88698059    -0.56280
O1330       O  0.11860316  0.01972882  0.71098208    -0.57490
C1331       C  0.10814121  0.02743197  0.81056246     0.75140
O1332       O  0.10362246  0.08629013  0.76967117    -0.58640
C1333       C  0.11100515  0.03081124  0.68717930     0.75110
C1334       C  0.05318346  0.03033281  0.74812121     0.77510
Cd1335     Cd  0.10029074  0.04579729  0.74978343     1.37470
O1336       O  0.12019771  0.02020707  0.78738890    -0.57480
O1337       O  0.07006703  0.01726843  0.75485106    -0.56290
C1338       C  0.12558179  0.08516761  0.77180231     0.77470
O1339       O  0.05800910  0.05137763  0.74164538    -0.58670
O1340       O  0.09240874  0.04203023  0.80466894    -0.57120
O1341       O  0.10096035  0.04997739  0.69254882    -0.57110
O1342       O  0.13522773  0.06848480  0.75752940    -0.56280
O1343       O  0.12168235  0.00216839  0.96188132    -0.57490
C1344       C  0.11141822  0.99003120  0.56228766     0.75140
O1345       O  0.05934346  0.96893924  0.49613642    -0.58640
C1346       C  0.10906279  0.99568790  0.93878775     0.75110
C1347       C  0.12706593  0.93657643  0.97797701     0.77510
Cd1348     Cd  0.10157806  0.97595925  0.99902066     1.37470
O1349       O  0.12029574  0.00065711  0.53900099    -0.57480
O1350       O  0.13674148  0.95394486  0.99068757    -0.56290
C1351       C  0.05404709  0.99029956  0.49854130     0.77470
O1352       O  0.10523154  0.93500912  0.98127094    -0.58670
O1353       O  0.10023237  0.97154250  0.55636549    -0.57120
O1354       O  0.09294537  0.98160565  0.94470344    -0.57110
O1355       O  0.07076287  0.00409891  0.50308900    -0.56280
O1356       O  0.24924329  0.87155007  0.91408390    -0.57490
C1357       C  0.23755814  0.86660686  0.81572896     0.75140
O1358       O  0.21633340  0.80998014  0.87345391    -0.58640
C1359       C  0.24123218  0.86066198  0.93778570     0.75110
C1360       C  0.18236687  0.87775740  0.89723382     0.77510
Cd1361     Cd  0.22246356  0.85245257  0.87746614     1.37460
O1362       O  0.24671238  0.87469475  0.84067508    -0.57480
O1363       O  0.20229460  0.88630990  0.89334449    -0.56290
C1364       C  0.23769892  0.80539465  0.87772385     0.77470
O1365       O  0.17971325  0.85684558  0.88826220    -0.58670
O1366       O  0.22028018  0.85331752  0.81950554    -0.57120
O1367       O  0.22552148  0.84579959  0.93274274    -0.57110
O1368       O  0.25132135  0.82240351  0.88104437    -0.56280
O1369       O  0.39749934  0.51347887  0.79013139    -0.57490
C1370       C  0.39989340  0.52661778  0.68796950     0.75140
O1371       O  0.41131880  0.58235460  0.76805670    -0.58640
C1372       C  0.40948726  0.52308619  0.81189428     0.75110
C1373       C  0.46056299  0.52648511  0.74733197     0.77510
Cd1374     Cd  0.41298935  0.54106024  0.75061331     1.37460
O1375       O  0.39232063  0.51587820  0.71203780    -0.57480
O1376       O  0.44432412  0.51363030  0.75692831    -0.56290
C1377       C  0.39008082  0.58117339  0.77578049     0.77470
O1378       O  0.45474032  0.54681872  0.73869956    -0.58670
O1379       O  0.41079660  0.54536502  0.69300295    -0.57120
O1380       O  0.42253919  0.53965471  0.80397384    -0.57110
O1381       O  0.37913142  0.56311233  0.76745808    -0.56280
O1382       O  0.26522611  0.65159630  0.83473806    -0.57490
C1383       C  0.27842527  0.65171768  0.93637346     0.75140
O1384       O  0.33453391  0.66201410  0.85956249    -0.58640
C1385       C  0.27179249  0.66600430  0.81380992     0.75110
C1386       C  0.27704187  0.71329579  0.87902582     0.77510
Cd1387     Cd  0.29263172  0.66643266  0.87436251     1.37470
O1388       O  0.26965790  0.64287301  0.91158583    -0.57480
O1389       O  0.26347206  0.69619523  0.87590714    -0.56290
C1390       C  0.33193209  0.64120325  0.85011013     0.77470
O1391       O  0.29861748  0.70886198  0.88177462    -0.58670
O1392       O  0.29503777  0.66575899  0.93208501    -0.57120
O1393       O  0.28742431  0.68003841  0.82213140    -0.57110
O1394       O  0.31253563  0.63181039  0.85545298    -0.56280
O1395       O  0.26490852  0.37787931  0.90818142    -0.57490
C1396       C  0.27703267  0.36998829  0.81220874     0.75140
O1397       O  0.33393771  0.35265630  0.89098414    -0.58640
C1398       C  0.27299411  0.36883312  0.93330055     0.75110
C1399       C  0.27510672  0.30908881  0.87416355     0.77510
Cd1400     Cd  0.29229612  0.35603520  0.87448399     1.37460
O1401       O  0.26848016  0.37899063  0.83691887    -0.57480
O1402       O  0.26476655  0.32567229  0.88750237    -0.56290
C1403       C  0.33652846  0.37439841  0.89404018     0.77470
O1404       O  0.29427521  0.31410889  0.86120030    -0.58670
O1405       O  0.29375786  0.35612162  0.81643788    -0.57120
O1406       O  0.28922296  0.35430659  0.93043092    -0.57110
O1407       O  0.32012133  0.38690319  0.88388019    -0.56280
O1408       O  0.39446917  0.50286785  0.96500465    -0.57490
C1409       C  0.39951005  0.48595677  0.56250598     0.75140
O1410       O  0.41196962  0.43088778  0.98616766    -0.58640
C1411       C  0.40882219  0.49883579  0.94295218     0.75110
C1412       C  0.46158718  0.48762454  0.50409288     0.77510
Cd1413     Cd  0.41346522  0.47346034  0.49969743     1.37460
O1414       O  0.39328784  0.49797777  0.53886491    -0.57480
O1415       O  0.44500990  0.49895819  0.51571721    -0.56290
C1416       C  0.39261403  0.43273439  0.97193635     0.77470
O1417       O  0.45613000  0.46789835  0.49297822    -0.58670
O1418       O  0.40888990  0.46651800  0.55657151    -0.57120
O1419       O  0.42458562  0.48428788  0.94856702    -0.57110
O1420       O  0.38208734  0.45184675  0.97494244    -0.56280
O1421       O  0.25104900  0.65100027  0.66199668    -0.57490
C1422       C  0.24028237  0.65204666  0.56253782     0.75140
O1423       O  0.18099641  0.66107983  0.63442468    -0.58640
C1424       C  0.24072818  0.66092288  0.68486652     0.75110
C1425       C  0.23832011  0.71387884  0.62315038     0.77510
Cd1426     Cd  0.22347872  0.66641655  0.62346760     1.37460
O1427       O  0.24918219  0.64431683  0.58787382    -0.57480
O1428       O  0.25090366  0.69711905  0.63170347    -0.56290
C1429       C  0.18403949  0.64018524  0.64322563     0.77470
O1430       O  0.21781008  0.70879436  0.61430663    -0.58670
O1431       O  0.22264768  0.66493184  0.56565068    -0.57120
O1432       O  0.22289281  0.67286420  0.67875932    -0.57110
O1433       O  0.20399716  0.63183453  0.63866919    -0.56280
O1434       O  0.12187516  0.51669258  0.70837588    -0.57490
C1435       C  0.11622178  0.53036731  0.80973997     0.75140
O1436       O  0.10675763  0.58278897  0.72709206    -0.58640
C1437       C  0.10995096  0.52452102  0.68529724     0.75110
C1438       C  0.05554112  0.52599784  0.74993670     0.77510
Cd1439     Cd  0.10270411  0.54219706  0.74639382     1.37470
O1440       O  0.11897154  0.51620963  0.78702825    -0.57480
O1441       O  0.07225603  0.51392163  0.74007683    -0.56290
C1442       C  0.12859081  0.58082410  0.72349585     0.77470
O1443       O  0.06071996  0.54660238  0.75832387    -0.58670
O1444       O  0.10907692  0.55036915  0.80213957    -0.57120
O1445       O  0.09453885  0.53941660  0.69145783    -0.57110
O1446       O  0.13803267  0.56318450  0.73579888    -0.56280
O1447       O  0.24981317  0.37805758  0.66014115    -0.57490
C1448       C  0.24530369  0.36465379  0.56175443     0.75140
O1449       O  0.22021640  0.31353097  0.61723418    -0.58640
C1450       C  0.24010619  0.37009000  0.68469194     0.75110
C1451       C  0.18596160  0.38123652  0.60028243     0.77510
Cd1452     Cd  0.22608430  0.35598692  0.62192666     1.37460
O1453       O  0.25083759  0.37758355  0.58493183    -0.57480
O1454       O  0.20640469  0.38883083  0.60180384    -0.56290
C1455       C  0.24119907  0.30847106  0.62347232     0.77470
O1456       O  0.18281253  0.36127224  0.61244097    -0.58670
O1457       O  0.23349126  0.34676923  0.56788336    -0.57120
O1458       O  0.22265842  0.35715257  0.67984301    -0.57110
O1459       O  0.25418173  0.32544320  0.63019378    -0.56280
O1460       O  0.12218642  0.50367735  0.96254637    -0.57490
C1461       C  0.11142370  0.49410634  0.55670330     0.75140
O1462       O  0.05938149  0.46843692  0.98970684    -0.58640
C1463       C  0.11670589  0.49403472  0.93662430     0.75110
C1464       C  0.12635739  0.43523311  0.51702728     0.77510
Cd1465     Cd  0.10196621  0.47565243  0.99610208     1.37470
O1466       O  0.12368501  0.50054407  0.53343266    -0.57480
O1467       O  0.13541050  0.44983808  0.49850547    -0.56290
C1468       C  0.05431279  0.48972391  0.99376551     0.77470
O1469       O  0.10446888  0.43598792  0.51940039    -0.58670
O1470       O  0.09484596  0.48048552  0.55097803    -0.57120
O1471       O  0.10611444  0.47474456  0.93824192    -0.57110
O1472       O  0.07097947  0.50370613  0.99722185    -0.56280
C1473       C  0.14886175  0.38456300  0.56726479    -0.01520
C1474       C  0.16793427  0.39510520  0.58296894     0.08160
C1475       C  0.17205538  0.41905892  0.57784203    -0.01630
C1476       C  0.15954667  0.43131844  0.55471306    -0.01640
C1477       C  0.14102002  0.42062387  0.53822113     0.08290
C1478       C  0.13527592  0.39742425  0.54545805    -0.01830
Br1479     Br  0.10951660  0.38280730  0.52415855    -0.00380
Br1480     Br  0.14107615  0.35250683  0.57475786    -0.00450
Br1481     Br  0.16763981  0.46350866  0.54732037    -0.00410
Br1482     Br  0.19385195  0.43625245  0.60390152    -0.00400
C1483       C  0.11429508  0.49293693  0.64556971    -0.01520
C1484       C  0.11343685  0.51679367  0.65249736     0.08160
C1485       C  0.11415155  0.53323909  0.62763961    -0.01630
C1486       C  0.11589896  0.52577968  0.59614428    -0.01640
C1487       C  0.11548457  0.50194944  0.58925040     0.08290
C1488       C  0.11521160  0.48553528  0.61401084    -0.01830
Br1489     Br  0.11551703  0.45269614  0.60491475    -0.00380
Br1490     Br  0.11114957  0.47019936  0.67883901    -0.00450
Br1491     Br  0.11695056  0.54831883  0.56237206    -0.00410
Br1492     Br  0.11131966  0.56609244  0.63582541    -0.00400
C1493       C  0.10887668  0.52645971  0.89936364    -0.01520
C1494       C  0.12060555  0.50563329  0.90592321     0.08160
C1495       C  0.13403897  0.49515761  0.88224056    -0.01630
C1496       C  0.13443484  0.50457108  0.85145569    -0.01640
C1497       C  0.11985113  0.52351363  0.84351557     0.08290
C1498       C  0.10741188  0.53474997  0.86813504    -0.01830
Br1499     Br  0.08627738  0.56013532  0.86003007    -0.00380
Br1500     Br  0.09410134  0.54339039  0.93321768    -0.00450
Br1501     Br  0.15584917  0.49186379  0.82104434    -0.00410
Br1502     Br  0.15259229  0.46841425  0.89258447    -0.00400
C1503       C  0.15219382  0.63568457  0.68408714    -0.01520
C1504       C  0.16639842  0.62599864  0.66017535     0.08160
C1505       C  0.16746925  0.60165574  0.65714803    -0.01630
C1506       C  0.15698363  0.58725217  0.67970431    -0.01640
C1507       C  0.14224608  0.59677398  0.70306748     0.08290
C1508       C  0.13965929  0.62106778  0.70481407    -0.01830
Br1509     Br  0.12101387  0.63437709  0.73795460    -0.00380
Br1510     Br  0.15104381  0.66878994  0.69053493    -0.00450
Br1511     Br  0.16366186  0.55436654  0.67800186    -0.00410
Br1512     Br  0.18254571  0.58765650  0.62101907    -0.00400
C1513       C  0.23466640  0.36641518  0.50458629    -0.01520
C1514       C  0.25133504  0.37013654  0.52875511     0.08160
C1515       C  0.27364497  0.37809643  0.52079568    -0.01630
C1516       C  0.27968457  0.38056718  0.98885815    -0.01640
C1517       C  0.26401480  0.37391290  0.96492870     0.08290
C1518       C  0.24121965  0.36767576  0.97270043    -0.01830
Br1519     Br  0.21960880  0.35876414  0.93990587    -0.00380
Br1520     Br  0.20266988  0.35978161  0.51469233    -0.00450
Br1521     Br  0.30955612  0.39294624  0.97760279    -0.00410
Br1522     Br  0.29678820  0.38350842  0.55300043    -0.00400
C1523       C  0.28232656  0.37703547  0.75399184    -0.01520
C1524       C  0.26737385  0.37427184  0.78004077     0.08160
C1525       C  0.24320836  0.37324293  0.77472441    -0.01630
C1526       C  0.23422658  0.37391528  0.74367063    -0.01640
C1527       C  0.24930793  0.37441844  0.71732582     0.08290
C1528       C  0.27348979  0.37673861  0.72283001    -0.01830
Br1529     Br  0.29533263  0.37782438  0.68827440    -0.00380
Br1530     Br  0.31516752  0.38141808  0.76096190    -0.00450
Br1531     Br  0.20099995  0.37458483  0.73779338    -0.00410
Br1532     Br  0.22214877  0.36862246  0.80961413    -0.00400
C1533       C  0.37600323  0.39277313  0.96143125    -0.01520
C1534       C  0.38313757  0.41465558  0.95040441     0.08160
C1535       C  0.37943965  0.42040273  0.91836297    -0.01630
C1536       C  0.36583919  0.40607898  0.89881946    -0.01640
C1537       C  0.35652601  0.38527214  0.91070641     0.08290
C1538       C  0.36310032  0.37784435  0.94141094    -0.01830
Br1539     Br  0.35287207  0.34824308  0.95738573    -0.00380
Br1540     Br  0.38228269  0.38415928  0.50460124    -0.00450
Br1541     Br  0.35962560  0.41526622  0.85569990    -0.00410
Br1542     Br  0.39334665  0.44788100  0.90086258    -0.00400
C1543       C  0.24195627  0.65404112  0.77324402    -0.01520
C1544       C  0.26270074  0.66597905  0.78088726     0.08160
C1545       C  0.27537933  0.67696022  0.75620861    -0.01630
C1546       C  0.26960854  0.67257238  0.72457817    -0.01640
C1547       C  0.24944654  0.66014844  0.71725370     0.08290
C1548       C  0.23532255  0.65136501  0.74146790    -0.01830
Br1549     Br  0.20684213  0.63549435  0.73087840    -0.00380
Br1550     Br  0.22077014  0.64376925  0.80568377    -0.00450
Br1551     Br  0.28886950  0.68452254  0.69093338    -0.00410
Br1552     Br  0.29907449  0.70019819  0.76389593    -0.00400
C1553       C  0.23581941  0.64396962  0.50444226    -0.01520
C1554       C  0.25044184  0.64741241  0.53083791     0.08160
C1555       C  0.27465702  0.64880308  0.52617121    -0.01630
C1556       C  0.28391632  0.64813484  0.49535949    -0.01640
C1557       C  0.26907331  0.64715238  0.96868584     0.08290
C1558       C  0.24492958  0.64433119  0.97353873    -0.01830
Br1559     Br  0.22349909  0.64292475  0.93836585    -0.00380
Br1560     Br  0.20308389  0.63845793  0.51053422    -0.00450
Br1561     Br  0.31719248  0.64833077  0.99015083    -0.00410
Br1562     Br  0.29543023  0.65373941  0.56149540    -0.00400
C1563       C  0.38677019  0.50879552  0.89366832    -0.01520
C1564       C  0.40758978  0.50921228  0.91124779     0.08160
C1565       C  0.42862769  0.51460071  0.89613123    -0.01630
C1566       C  0.42934876  0.51709818  0.86328993    -0.01640
C1567       C  0.40864194  0.51630043  0.84541514     0.08290
C1568       C  0.38727760  0.51254608  0.86077285    -0.01830
Br1569     Br  0.35859154  0.51298019  0.83720733    -0.00380
Br1570     Br  0.35767606  0.50192891  0.91402072    -0.00450
Br1571     Br  0.45927480  0.52000548  0.84299140    -0.00410
Br1572     Br  0.45669526  0.51908313  0.92058645    -0.00400
C1573       C  0.41922194  0.50664728  0.64328447    -0.01520
C1574       C  0.39885680  0.51636233  0.65586329     0.08160
C1575       C  0.37833988  0.51612821  0.63775504    -0.01630
C1576       C  0.37817260  0.50590836  0.60729729    -0.01640
C1577       C  0.39841565  0.49529998  0.59525537     0.08290
C1578       C  0.41896953  0.49582212  0.61351375    -0.01830
Br1579     Br  0.44762510  0.48329813  0.59710920    -0.00380
Br1580     Br  0.44797089  0.50887581  0.66651457    -0.00450
Br1581     Br  0.35019337  0.50632220  0.58232939    -0.00410
Br1582     Br  0.35100493  0.53100813  0.65406667    -0.00400
C1583       C  0.38006258  0.59927155  0.82807741    -0.01520
C1584       C  0.37839729  0.59935313  0.79467052     0.08160
C1585       C  0.36279678  0.61450874  0.77986363    -0.01630
C1586       C  0.34845081  0.62891733  0.79818476    -0.01640
C1587       C  0.34969721  0.62860494  0.83152468     0.08290
C1588       C  0.36564636  0.61376548  0.84642200    -0.01830
Br1589     Br  0.36633799  0.61208524  0.89194732    -0.00380
Br1590     Br  0.40096517  0.57832581  0.84906146    -0.00450
Br1591     Br  0.32569763  0.64760285  0.77733958    -0.00410
Br1592     Br  0.36049572  0.61470499  0.73433683    -0.00400
C1593       C  0.24322612  0.76640640  0.85301849    -0.01520
C1594       C  0.24682115  0.78148552  0.87873090     0.08160
C1595       C  0.26075088  0.77431320  0.90445713    -0.01630
C1596       C  0.27116962  0.75222143  0.90432179    -0.01640
C1597       C  0.26761951  0.73714322  0.87855939     0.08290
C1598       C  0.25351914  0.74429820  0.85296206    -0.01830
Br1599     Br  0.24898356  0.72431278  0.81685423    -0.00380
Br1600     Br  0.22530540  0.77650830  0.81693062    -0.00450
Br1601     Br  0.28924625  0.74216820  0.94020837    -0.00410
Br1602     Br  0.26465189  0.79431761  0.94074118    -0.00400
C1603       C  0.13698947  0.89646820  0.95753586    -0.01520
C1604       C  0.14039530  0.92070817  0.95707588     0.08160
C1605       C  0.15528517  0.93041275  0.93404739    -0.01630
C1606       C  0.16582075  0.91620548  0.91131448    -0.01640
C1607       C  0.16435543  0.89183427  0.91359784     0.08290
C1608       C  0.14931374  0.88199615  0.93638199    -0.01830
Br1609     Br  0.14633006  0.84880169  0.94031175    -0.00380
Br1610     Br  0.11719757  0.88289865  0.98919144    -0.00450
Br1611     Br  0.18151707  0.93053681  0.87591731    -0.00410
Br1612     Br  0.16195079  0.96333216  0.93289008    -0.00400
C1613       C  0.11347727  0.02769341  0.89974388    -0.01520
C1614       C  0.11242412  0.00380150  0.90618492     0.08160
C1615       C  0.11173782  0.98763158  0.88098840    -0.01630
C1616       C  0.11193284  0.99538453  0.84956339    -0.01640
C1617       C  0.11168065  0.01930465  0.84315139     0.08290
C1618       C  0.11237754  0.03547143  0.86834026    -0.01830
Br1619     Br  0.11063556  0.06843015  0.86049680    -0.00380
Br1620     Br  0.11421241  0.04998164  0.93388380    -0.00450
Br1621     Br  0.10997088  0.97309916  0.81546723    -0.00410
Br1622     Br  0.10954472  0.95467925  0.88893939    -0.00400
C1623       C  0.13296103  0.00308686  0.61107258    -0.01520
C1624       C  0.11197712  0.99997305  0.59447131     0.08160
C1625       C  0.09101129  0.00752185  0.60799336    -0.01630
C1626       C  0.09096267  0.01813680  0.63788358    -0.01640
C1627       C  0.11188036  0.02096968  0.65486816     0.08290
C1628       C  0.13289358  0.01332838  0.64142624    -0.01830
Br1629     Br  0.16163060  0.01771785  0.66399440    -0.00380
Br1630     Br  0.16160645  0.99273982  0.59252768    -0.00450
Br1631     Br  0.06180223  0.02797283  0.65583451    -0.00410
Br1632     Br  0.06217805  0.00403815  0.58506115    -0.00400
C1633       C  0.26991746  0.24311974  0.87651356    -0.01520
C1634       C  0.24543814  0.23989761  0.87834401     0.08160
C1635       C  0.23099694  0.25977714  0.87748501    -0.01630
C1636       C  0.24071555  0.28209592  0.87415083    -0.01640
C1637       C  0.26506465  0.28524957  0.87421809     0.08290
C1638       C  0.27954779  0.26558154  0.87548337    -0.01830
Br1639     Br  0.31293456  0.26898956  0.87716413    -0.00380
Br1640     Br  0.29137421  0.21730941  0.87413949    -0.00450
Br1641     Br  0.22009460  0.30812389  0.86731113    -0.00410
Br1642     Br  0.19771436  0.25739334  0.88209236    -0.00400
C1643       C  0.15492192  0.09045477  0.81488103    -0.01520
C1644       C  0.13920100  0.10060872  0.79314718     0.08160
C1645       C  0.13526566  0.12474953  0.79451032    -0.01630
C1646       C  0.14771653  0.13870974  0.81629920    -0.01640
C1647       C  0.16341223  0.12841638  0.83794815     0.08290
C1648       C  0.16570650  0.10406362  0.83820714    -0.01830
Br1649     Br  0.18289184  0.08890152  0.87173176    -0.00380
Br1650     Br  0.16207166  0.05765015  0.81376600    -0.00450
Br1651     Br  0.14410604  0.17193869  0.81473965    -0.00410
Br1652     Br  0.11444810  0.13899185  0.76453919    -0.00400
C1653       C  0.28295498  0.25709910  0.61499137    -0.01520
C1654       C  0.26823287  0.23795796  0.62081162     0.08160
C1655       C  0.24454676  0.24223258  0.62802306    -0.01630
C1656       C  0.23576345  0.26506070  0.62873317    -0.01640
C1657       C  0.25043089  0.28419043  0.62262967     0.08290
C1658       C  0.27417779  0.27995426  0.61582417    -0.01830
Br1659     Br  0.29528510  0.30509994  0.60605539    -0.00380
Br1660     Br  0.31530405  0.25253222  0.60470870    -0.00450
Br1661     Br  0.20354105  0.26962485  0.63985599    -0.00410
Br1662     Br  0.22358102  0.21724206  0.63917019    -0.00400
C1663       C  0.23950813  0.15996893  0.72724218    -0.01520
C1664       C  0.26280553  0.16501174  0.72008053     0.08160
C1665       C  0.27889280  0.16904271  0.74498619    -0.01630
C1666       C  0.27177680  0.16713504  0.77658878    -0.01640
C1667       C  0.24848359  0.16243625  0.78353028     0.08290
C1668       C  0.23240565  0.15865085  0.75888509    -0.01830
Br1669     Br  0.20055889  0.15114738  0.76843168    -0.00380
Br1670     Br  0.21664418  0.15703886  0.69400025    -0.00450
Br1671     Br  0.29380528  0.17188564  0.81045832    -0.00410
Br1672     Br  0.31084078  0.17741080  0.73684010    -0.00400
C1673       C  0.24081451  0.14572101  0.52726649    -0.01520
C1674       C  0.26513962  0.14757139  0.53181567     0.08160
C1675       C  0.27963686  0.14805092  0.00489058    -0.01630
C1676       C  0.27000548  0.14931472  0.97424667    -0.01640
C1677       C  0.24568621  0.14863502  0.96984641     0.08290
C1678       C  0.23129462  0.14570654  0.49646766    -0.01830
Br1679     Br  0.19831222  0.14135930  0.49089012    -0.00380
Br1680     Br  0.21971188  0.14500348  0.56268765    -0.00450
Br1681     Br  0.29057657  0.15428316  0.93885695    -0.00410
Br1682     Br  0.31296913  0.14658641  0.00940646    -0.00400
C1683       C  0.36762738  0.12090046  0.66030644    -0.01520
C1684       C  0.34473110  0.12544835  0.66997886     0.08160
C1685       C  0.33729079  0.11744251  0.69992973    -0.01630
C1686       C  0.35295061  0.10670204  0.72074606    -0.01640
C1687       C  0.37552578  0.10136906  0.71079376     0.08290
C1688       C  0.38280424  0.10834458  0.68029642    -0.01830
Br1689     Br  0.41254364  0.09862112  0.66436980    -0.00380
Br1690     Br  0.37710178  0.12911543  0.61809980    -0.00450
Br1691     Br  0.34347809  0.09930706  0.76336557    -0.00410
Br1692     Br  0.30523424  0.11929540  0.71236933    -0.00400
C1693       C  0.24307814  0.77901223  0.63747326    -0.01520
C1694       C  0.26662288  0.78327883  0.62991944     0.08160
C1695       C  0.28066610  0.76463097  0.61995140    -0.01630
C1696       C  0.27120589  0.74219199  0.61689150    -0.01640
C1697       C  0.24759136  0.73797603  0.62411374     0.08290
C1698       C  0.23361078  0.75657432  0.63438501    -0.01830
Br1699     Br  0.20160999  0.75146703  0.64587133    -0.00380
Br1700     Br  0.22366319  0.80352318  0.65402881    -0.00450
Br1701     Br  0.29077955  0.71763533  0.60081147    -0.00410
Br1702     Br  0.31276291  0.76961955  0.60883941    -0.00400
C1703       C  0.27336384  0.86267075  0.97699396    -0.01520
C1704       C  0.24961556  0.86455047  0.97009922     0.08160
C1705       C  0.23344151  0.86749099  0.99470526    -0.01630
C1706       C  0.24075994  0.86678567  0.52633418    -0.01640
C1707       C  0.26443904  0.86377598  0.53341706     0.08290
C1708       C  0.28082904  0.86238583  0.50858483    -0.01830
Br1709     Br  0.31369224  0.85989336  0.51712008    -0.00380
Br1710     Br  0.29559586  0.85864645  0.94333616    -0.00450
Br1711     Br  0.21783075  0.86765811  0.55951947    -0.00410
Br1712     Br  0.20109722  0.87262619  0.98516941    -0.00400
C1713       C  0.28039300  0.87181126  0.74793389    -0.01520
C1714       C  0.26531893  0.87219995  0.72150358     0.08160
C1715       C  0.24114929  0.87431982  0.72663161    -0.01630
C1716       C  0.23226134  0.87434632  0.75765818    -0.01640
C1717       C  0.24720073  0.87130940  0.78380867     0.08290
C1718       C  0.27140808  0.87070160  0.77881554    -0.01830
Br1719     Br  0.29265162  0.86615841  0.81371774    -0.00380
Br1720     Br  0.31361691  0.87324834  0.74230622    -0.00450
Br1721     Br  0.19945490  0.87893089  0.76424652    -0.00410
Br1722     Br  0.21951942  0.87550791  0.69167787    -0.00400
C1723       C  0.38791782  0.01179614  0.64419477    -0.01520
C1724       C  0.40897104  0.01974431  0.65742975     0.08160
C1725       C  0.42885351  0.02200090  0.63819173    -0.01630
C1726       C  0.42771192  0.01602217  0.60620906    -0.01640
C1727       C  0.40679440  0.00795378  0.59310391     0.08290
C1728       C  0.38690496  0.00575663  0.61201376    -0.01830
Br1729     Br  0.35876055  0.99301455  0.59435004    -0.00380
Br1730     Br  0.36013433  0.01011401  0.66938768    -0.00450
Br1731     Br  0.45512315  0.01876639  0.58032152    -0.00410
Br1732     Br  0.45827436  0.03252075  0.65516055    -0.00400
C1733       C  0.41899056  0.00253683  0.88971559    -0.01520
C1734       C  0.39774140  0.00118556  0.90610421     0.08160
C1735       C  0.37752737  0.01061358  0.89231581    -0.01630
C1736       C  0.37853653  0.02096505  0.86207931    -0.01640
C1737       C  0.39979870  0.02224891  0.84591143     0.08290
C1738       C  0.41997175  0.01299832  0.85981713    -0.01830
Br1739     Br  0.44914632  0.01415994  0.83750987    -0.00380
Br1740     Br  0.44739914  0.99141932  0.90880980    -0.00450
Br1741     Br  0.35112281  0.03411337  0.84319318    -0.00410
Br1742     Br  0.34844554  0.00886176  0.91444082    -0.00400
C1743       C  0.33331409  0.90971529  0.56159239    -0.01520
C1744       C  0.34393504  0.89557952  0.58486208     0.08160
C1745       C  0.36831155  0.89440626  0.58626903    -0.01630
C1746       C  0.38191890  0.90793049  0.56545898    -0.01640
C1747       C  0.37117870  0.92167339  0.54182803     0.08290
C1748       C  0.34682354  0.92157401  0.53929159    -0.01830
Br1749     Br  0.33164560  0.93715847  0.50438525    -0.00380
Br1750     Br  0.30004532  0.91356536  0.55969793    -0.00450
Br1751     Br  0.41505382  0.90897216  0.57148873    -0.00410
Br1752     Br  0.38299763  0.87606141  0.61871484    -0.00400
C1753       C  0.51319793  0.99083092  0.73319414    -0.01520
C1754       C  0.53130832  0.00140825  0.75046198     0.08160
C1755       C  0.52647862  0.02149346  0.76871421    -0.01630
C1756       C  0.50382942  0.03058745  0.76995384    -0.01640
C1757       C  0.48575443  0.02006342  0.75257591     0.08290
C1758       C  0.49057868  0.99997950  0.73435428    -0.01830
Br1759     Br  0.46660874  0.98494826  0.70962920    -0.00380
Br1760     Br  0.51938368  0.96465017  0.70587833    -0.00450
Br1761     Br  0.49749587  0.05659261  0.79750488    -0.00410
Br1762     Br  0.55046933  0.03665163  0.79327837    -0.00400
C1763       C  0.66645825  0.91862138  0.78406848    -0.01520
C1764       C  0.64235438  0.92021128  0.78869726     0.08160
C1765       C  0.63227469  0.90869295  0.81486598    -0.01630
C1766       C  0.64619993  0.89543977  0.83567992    -0.01640
C1767       C  0.67042484  0.89469771  0.83164082     0.08290
C1768       C  0.68051770  0.90708049  0.80621649    -0.01830
Br1769     Br  0.71379513  0.90917300  0.80135592    -0.00380
Br1770     Br  0.68037450  0.93179841  0.74661127    -0.00450
Br1771     Br  0.63242557  0.88045904  0.87179407    -0.00410
Br1772     Br  0.59984508  0.91278877  0.82440972    -0.00400
C1773       C  0.98903803  0.02401258  0.76656316    -0.01520
C1774       C  0.98413564  0.00170753  0.75428778     0.08160
C1775       C  0.00194701  0.98903949  0.73945164    -0.01630
C1776       C  0.02432689  0.99865033  0.73668583    -0.01480
C1777       C  0.02915069  0.02108972  0.74872273     0.08290
C1778       C  0.01133400  0.03370306  0.76364103    -0.01830
Br1779     Br  0.01751957  0.06384045  0.78186399    -0.00380
Br1780     Br  0.96559997  0.04106871  0.78923635    -0.00450
Br1781     Br  0.04795399  0.98119406  0.71478575    -0.00410
Br1782     Br  0.99558292  0.95895521  0.72125515    -0.00400
C1783       C  0.74081522  0.85515358  0.72333229    -0.01520
C1784       C  0.76465623  0.85195475  0.71754525     0.08160
C1785       C  0.77997867  0.84770756  0.74318658    -0.01630
C1786       C  0.77176688  0.84872227  0.77433398    -0.01640
C1787       C  0.74811251  0.85269595  0.78005760     0.08290
C1788       C  0.73247683  0.85491129  0.75446522    -0.01830
Br1789     Br  0.69945624  0.85723445  0.76144036    -0.00380
Br1790     Br  0.71904446  0.85815516  0.68869732    -0.00450
Br1791     Br  0.79278150  0.84288168  0.80917607    -0.00410
Br1792     Br  0.81238260  0.84037160  0.73669923    -0.00400
C1793       C  0.77307083  0.87095269  0.97249623    -0.01520
C1794       C  0.74877532  0.87054937  0.96776623     0.08160
C1795       C  0.73405432  0.87246863  0.99427234    -0.01630
C1796       C  0.74331756  0.87232383  0.52516711    -0.01640
C1797       C  0.76761407  0.87144808  0.52997750     0.08290
C1798       C  0.78236833  0.87199217  0.00334730    -0.01830
Br1799     Br  0.81556802  0.87447721  0.00872551    -0.00380
Br1800     Br  0.79415556  0.86806230  0.93726342    -0.00450
Br1801     Br  0.72206254  0.87128982  0.56039590    -0.00410
Br1802     Br  0.70094781  0.87566937  0.98854505    -0.00400
C1803       C  0.86883483  0.90007751  0.65991864    -0.01520
C1804       C  0.84623900  0.89435209  0.66974228     0.08160
C1805       C  0.83857030  0.90188559  0.69979385    -0.01630
C1806       C  0.85373983  0.91344532  0.72053125    -0.01640
C1807       C  0.87592329  0.92010944  0.71037431     0.08290
C1808       C  0.88343891  0.91344898  0.67981481    -0.01830
Br1809     Br  0.91259088  0.92464019  0.66364006    -0.00380
Br1810     Br  0.87850678  0.89228590  0.61763493    -0.00450
Br1811     Br  0.84411998  0.92011824  0.76331023    -0.00410
Br1812     Br  0.80669121  0.89838655  0.71229621    -0.00400
C1813       C  0.52379876  0.99504775  0.49799581    -0.01520
C1814       C  0.52814623  0.01905342  0.50324223     0.08160
C1815       C  0.50905409  0.03424686  0.50618383    -0.01630
C1816       C  0.48618553  0.02594674  0.50263863    -0.01640
C1817       C  0.48181712  0.00190338  0.49755004     0.08290
C1818       C  0.50093063  0.98671088  0.99460922    -0.01830
Br1819     Br  0.49645189  0.95440417  0.98342396    -0.00380
Br1820     Br  0.54870899  0.97257443  0.99507152    -0.00450
Br1821     Br  0.46137526  0.04858726  0.50498404    -0.00410
Br1822     Br  0.51361850  0.06648423  0.51767292    -0.00400
C1823       C  0.62660813  0.00591156  0.86015665    -0.01520
C1824       C  0.60590513  0.99860930  0.84535113     0.08160
C1825       C  0.58529321  0.99654989  0.86311753    -0.01630
C1826       C  0.58527855  0.00250857  0.89513712    -0.01640
C1827       C  0.60579464  0.01025732  0.90972780     0.08290
C1828       C  0.62649266  0.01188891  0.89236677    -0.01830
Br1829     Br  0.65421292  0.02398922  0.91202899    -0.00380
Br1830     Br  0.65535657  0.00685565  0.83698506    -0.00450
Br1831     Br  0.55679209  0.00042797  0.91891202    -0.00410
Br1832     Br  0.55644564  0.98649145  0.84395176    -0.00400
C1833       C  0.59329340  0.01950345  0.61241225    -0.01520
C1834       C  0.61414124  0.02259062  0.59559853     0.08160
C1835       C  0.63529963  0.01538513  0.60919881    -0.01630
C1836       C  0.63556687  0.00511642  0.63950612    -0.01640
C1837       C  0.61464573  0.00171760  0.65594328     0.08290
C1838       C  0.59357268  0.00914802  0.64240721    -0.01830
Br1839     Br  0.56484212  0.00567209  0.66528979    -0.00380
Br1840     Br  0.56387014  0.02802454  0.59369107    -0.00450
Br1841     Br  0.66432886  0.99487388  0.65799729    -0.00410
Br1842     Br  0.66385931  0.02003594  0.58658654    -0.00400
C1843       C  0.64420407  0.11959496  0.90693629    -0.01520
C1844       C  0.66800816  0.12202510  0.91366990     0.08160
C1845       C  0.67727481  0.11142330  0.94112278    -0.01630
C1846       C  0.66256782  0.10063117  0.96300021    -0.01640
C1847       C  0.63894181  0.09746377  0.95592218     0.08290
C1848       C  0.62985424  0.10663856  0.92743271    -0.01830
Br1849     Br  0.59853545  0.09948318  0.91462701    -0.00380
Br1850     Br  0.63197375  0.13155719  0.86774891    -0.00450
Br1851     Br  0.67483676  0.09063373  0.50334689    -0.00410
Br1852     Br  0.71030962  0.11025579  0.94881426    -0.00400
C1853       C  0.00264226  0.03041310  0.98193939    -0.01520
C1854       C  0.98359605  0.01653531  0.99126888     0.08160
C1855       C  0.98790560  0.99314367  0.50031956    -0.01630
C1856       C  0.01078502  0.98506372  0.50429872    -0.01640
C1857       C  0.02977768  0.99907630  0.99559624     0.08290
C1858       C  0.02541585  0.02153321  0.98321650    -0.01830
Br1859     Br  0.05025515  0.04021768  0.96593125    -0.00380
Br1860     Br  0.99797235  0.06121002  0.96485930    -0.00450
Br1861     Br  0.01565540  0.95515915  0.52399782    -0.00410
Br1862     Br  0.96313716  0.97090365  0.50629741    -0.00400
C1863       C  0.88740627  0.01560323  0.64391356    -0.01520
C1864       C  0.90719896  0.00521917  0.65751715     0.08160
C1865       C  0.92693264  0.00078339  0.63877613    -0.01630
C1866       C  0.92636229  0.00537325  0.60640441    -0.01640
C1867       C  0.90660730  0.01544922  0.59272631     0.08290
C1868       C  0.88728402  0.02103296  0.61149179    -0.01830
Br1869     Br  0.86139253  0.03747751  0.59322357    -0.00380
Br1870     Br  0.86035870  0.02208627  0.66910784    -0.00450
Br1871     Br  0.95290262  0.99785163  0.58071711    -0.00410
Br1872     Br  0.95567440  0.98993486  0.65737472    -0.00400
C1873       C  0.88234531  0.99204084  0.86767567    -0.01520
C1874       C  0.89038165  0.00553611  0.84230036     0.08160
C1875       C  0.89586501  0.02906424  0.84743513    -0.01630
C1876       C  0.89603489  0.03828632  0.87830641    -0.01640
C1877       C  0.89045884  0.02402954  0.90462295     0.08290
C1878       C  0.88179367  0.00130529  0.89857972    -0.01830
Br1879     Br  0.86900124  0.98210740  0.93168857    -0.00380
Br1880     Br  0.87177164  0.96075644  0.85977139    -0.00450
Br1881     Br  0.90394002  0.07072258  0.88332101    -0.00410
Br1882     Br  0.90487030  0.04854551  0.81237040    -0.00400
C1883       C  0.76756588  0.17079692  0.97526053    -0.01520
C1884       C  0.74407735  0.16602826  0.96920018     0.08160
C1885       C  0.72851780  0.16313020  0.99461108    -0.01630
C1886       C  0.73699257  0.16198579  0.52574253    -0.01640
C1887       C  0.76071248  0.16604447  0.53186544     0.08290
C1888       C  0.77573883  0.17169425  0.50649241    -0.01830
Br1889     Br  0.80768975  0.18086666  0.51333128    -0.00380
Br1890     Br  0.78832936  0.17801695  0.94076802    -0.00450
Br1891     Br  0.71553145  0.15619356  0.55987150    -0.00410
Br1892     Br  0.69544184  0.16157707  0.98748765    -0.00400
C1893       C  0.78231072  0.14821609  0.74666520    -0.01520
C1894       C  0.76761726  0.14515211  0.72006514     0.08160
C1895       C  0.74383941  0.14009238  0.72525748    -0.01630
C1896       C  0.73474385  0.14027700  0.75617962    -0.01640
C1897       C  0.74897260  0.14605262  0.78218676     0.08290
C1898       C  0.77297411  0.14922608  0.77739883    -0.01830
Br1899     Br  0.79314654  0.15708396  0.81237654    -0.00380
Br1900     Br  0.81553603  0.15064641  0.74170567    -0.00450
Br1901     Br  0.70257155  0.13234607  0.76294333    -0.00410
Br1902     Br  0.72271524  0.13419768  0.69058875    -0.00400
C1903       C  0.88293433  0.10722741  0.57272869    -0.01520
C1904       C  0.87642298  0.10110780  0.54152843     0.08160
C1905       C  0.85458079  0.10783911  0.53003563    -0.01630
C1906       C  0.83872528  0.11898749  0.55002888    -0.01640
C1907       C  0.84538660  0.12599607  0.58080662     0.08290
C1908       C  0.86768362  0.12023199  0.59199266    -0.01830
Br1909     Br  0.87604317  0.12744692  0.63504232    -0.00380
Br1910     Br  0.91148654  0.09557361  0.59039910    -0.00450
Br1911     Br  0.80727156  0.12259195  0.53546468    -0.00410
Br1912     Br  0.84628677  0.10149800  0.98656481    -0.00400
C1913       C  0.00513259  0.48239677  0.74912999    -0.01520
C1914       C  0.98560149  0.49710192  0.74665983     0.08160
C1915       C  0.98927354  0.52153939  0.74735190    -0.01630
C1916       C  0.01183271  0.53093177  0.74942927    -0.01640
C1917       C  0.03139917  0.51621362  0.75069555     0.08290
C1918       C  0.02772664  0.49179189  0.75131167    -0.01830
Br1919     Br  0.05326521  0.47038415  0.75720020    -0.00380
Br1920     Br  0.00138373  0.44907008  0.75152369    -0.00450
Br1921     Br  0.01525230  0.56439505  0.74980173    -0.00410
Br1922     Br  0.96388651  0.54329950  0.74452711    -0.00400
C1923       C  0.73927404  0.27875601  0.87699567    -0.01520
C1924       C  0.76367090  0.28233231  0.87536102     0.08160
C1925       C  0.77823362  0.26285296  0.87103772    -0.01630
C1926       C  0.76862778  0.24056400  0.86699597    -0.01640
C1927       C  0.74437442  0.23692874  0.86942271     0.08290
C1928       C  0.72980408  0.25623769  0.87443601    -0.01830
Br1929     Br  0.69672844  0.25215925  0.87951270    -0.00380
Br1930     Br  0.71804845  0.30420081  0.88458000    -0.00450
Br1931     Br  0.78929358  0.21536470  0.85600044    -0.00410
Br1932     Br  0.81164697  0.26593501  0.87014844    -0.00400
C1933       C  0.86299469  0.38081125  0.81188277    -0.01520
C1934       C  0.84644088  0.39183838  0.83161416     0.08160
C1935       C  0.84322848  0.41608353  0.82846208    -0.01630
C1936       C  0.85426379  0.42851622  0.80416660    -0.01640
C1937       C  0.87128626  0.41771329  0.78505662     0.08290
C1938       C  0.87564746  0.39381113  0.78928880    -0.01830
Br1939     Br  0.89762493  0.37837272  0.76219601    -0.00380
Br1940     Br  0.86804047  0.34776803  0.81418831    -0.00450
Br1941     Br  0.84633769  0.46102805  0.79914982    -0.00410
Br1942     Br  0.82522752  0.43336606  0.85919483    -0.00400
C1943       C  0.52657927  0.52480658  0.75350506    -0.01520
C1944       C  0.53130182  0.50096035  0.74815923     0.08160
C1945       C  0.51271154  0.48582497  0.74130216    -0.01630
C1946       C  0.48973510  0.49411818  0.74088197    -0.01640
C1947       C  0.48495663  0.51789523  0.74672577     0.08290
C1948       C  0.50359996  0.53310901  0.75313775    -0.01830
Br1949     Br  0.49797098  0.56524590  0.76392602    -0.00380
Br1950     Br  0.55122190  0.54672119  0.76228352    -0.00450
Br1951     Br  0.46518043  0.47229449  0.73131181    -0.00410
Br1952     Br  0.51853020  0.45383628  0.72994326    -0.00400
C1953       C  0.73701151  0.26332874  0.60692488    -0.01520
C1954       C  0.74570620  0.28086162  0.62695545     0.08160
C1955       C  0.76396905  0.27554329  0.64824736    -0.01630
C1956       C  0.77373843  0.25314049  0.64891655    -0.01640
C1957       C  0.76512031  0.23566899  0.62877506     0.08290
C1958       C  0.74669434  0.24090881  0.60775269    -0.01830
Br1959     Br  0.73541703  0.21791643  0.57822249    -0.00380
Br1960     Br  0.71259287  0.27009110  0.57695746    -0.00450
Br1961     Br  0.79827503  0.24622518  0.67859452    -0.00410
Br1962     Br  0.77490364  0.29840243  0.67826082    -0.00400
C1963       C  0.73132255  0.36047319  0.74443185    -0.01520
C1964       C  0.74779449  0.36124476  0.71964574     0.08160
C1965       C  0.77149425  0.36397267  0.72669387    -0.01630
C1966       C  0.77876846  0.36508534  0.75828176    -0.01640
C1967       C  0.76247149  0.36318081  0.78293443     0.08290
C1968       C  0.73870634  0.36155909  0.77603301    -0.01830
Br1969     Br  0.71633434  0.35906206  0.80979164    -0.00380
Br1970     Br  0.69848869  0.35766889  0.73584134    -0.00450
Br1971     Br  0.81127722  0.36921644  0.76759154    -0.00410
Br1972     Br  0.79447420  0.36394972  0.69353102    -0.00400
C1973       C  0.77155813  0.37140937  0.52699962    -0.01520
C1974       C  0.74728909  0.37015344  0.53174470     0.08160
C1975       C  0.73238596  0.37147229  0.50523578    -0.01630
C1976       C  0.74151574  0.37155124  0.97436363    -0.01640
C1977       C  0.76578748  0.37148609  0.96957701     0.08290
C1978       C  0.78065741  0.37262811  0.49613385    -0.01830
Br1979     Br  0.81370378  0.37621948  0.49049594    -0.00380
Br1980     Br  0.79296686  0.36952812  0.56218637    -0.00450
Br1981     Br  0.72023376  0.36965461  0.93905115    -0.00410
Br1982     Br  0.69921949  0.37359969  0.51086968    -0.00400
C1983       C  0.64477416  0.39381370  0.66561200    -0.01520
C1984       C  0.66913512  0.39420842  0.66807215     0.08160
C1985       C  0.67961591  0.40754920  0.69237974    -0.01630
C1986       C  0.66595418  0.41895310  0.71498353    -0.01640
C1987       C  0.64166349  0.41982359  0.71154773     0.08290
C1988       C  0.63109831  0.40719003  0.68654580    -0.01830
Br1989     Br  0.59823167  0.40967977  0.67864816    -0.00380
Br1990     Br  0.63030556  0.37695489  0.63144149    -0.00450
Br1991     Br  0.68084933  0.43288010  0.75143579    -0.00410
Br1992     Br  0.71288564  0.41119474  0.69513995    -0.00400
C1993       C  0.52738501  0.49265621  0.99384990    -0.01520
C1994       C  0.53106293  0.51698087  0.99608089     0.08160
C1995       C  0.51163045  0.53155241  0.50053943    -0.01630
C1996       C  0.48912417  0.52205710  0.50293995    -0.01640
C1997       C  0.48561061  0.49760286  0.50235123     0.08290
C1998       C  0.50511970  0.48306183  0.99830259    -0.01830
Br1999     Br  0.50219818  0.44965553  0.00062773    -0.00380
Br2000     Br  0.55236326  0.47179007  0.98264164    -0.00450
Br2001     Br  0.46341433  0.54357472  0.50604938    -0.00410
Br2002     Br  0.51526586  0.56482539  0.50438719    -0.00400
C2003       C  0.63132757  0.51384927  0.60841833    -0.01520
C2004       C  0.61193394  0.50932253  0.58916560     0.08160
C2005       C  0.59203047  0.49890665  0.60189507    -0.01630
C2006       C  0.59078282  0.49445873  0.63428732    -0.01640
C2007       C  0.61017245  0.49896153  0.65388555     0.08290
C2008       C  0.63063699  0.50826965  0.64075880    -0.01830
Br2009     Br  0.65785098  0.51314374  0.66652537    -0.00380
Br2010     Br  0.65813112  0.52912860  0.59092865    -0.00450
Br2011     Br  0.56144992  0.48421874  0.65160618    -0.00410
Br2012     Br  0.56614146  0.49095963  0.57480481    -0.00400
C2013       C  0.63768437  0.51317306  0.89192544    -0.01520
C2014       C  0.61731478  0.52334416  0.90418254     0.08160
C2015       C  0.59704074  0.52394502  0.88537976    -0.01630
C2016       C  0.59701498  0.51401830  0.85510201    -0.01640
C2017       C  0.61727763  0.50392120  0.84285667     0.08290
C2018       C  0.63768922  0.50363794  0.86113078    -0.01830
Br2019     Br  0.66513873  0.48918731  0.84443448    -0.00380
Br2020     Br  0.66563527  0.51265780  0.91695384    -0.00450
Br2021     Br  0.56874177  0.51361173  0.83057816    -0.00410
Br2022     Br  0.56844289  0.53677951  0.90154556    -0.00400
C2023       C  0.77073660  0.74204146  0.63856235    -0.01520
C2024       C  0.74799318  0.73757087  0.62741833     0.08160
C2025       C  0.73549608  0.75558030  0.61255751    -0.01630
C2026       C  0.74568497  0.77762460  0.60855004    -0.01640
C2027       C  0.76841855  0.78212741  0.61978520     0.08290
C2028       C  0.78092918  0.76408667  0.63459111    -0.01830
Br2029     Br  0.81173523  0.76950981  0.65107590    -0.00380
Br2030     Br  0.78776134  0.71841869  0.66129140    -0.00450
Br2031     Br  0.72858470  0.80121082  0.58582022    -0.00410
Br2032     Br  0.70466549  0.75009120  0.59620608    -0.00400
C2033       C  0.63212048  0.60288046  0.57906471    -0.01520
C2034       C  0.63495363  0.60199621  0.54589052     0.08160
C2035       C  0.65159417  0.61622033  0.53146615    -0.01630
C2036       C  0.66573382  0.63075869  0.55002860    -0.01640
C2037       C  0.66365832  0.63105029  0.58328351     0.08290
C2038       C  0.64655982  0.61727857  0.59771662    -0.01830
Br2039     Br  0.64406718  0.61707697  0.64311049    -0.00380
Br2040     Br  0.61001820  0.58270194  0.59926310    -0.00450
Br2041     Br  0.68903118  0.64912889  0.52967165    -0.00410
Br2042     Br  0.65565890  0.61493805  0.98619150    -0.00400
C2043       C  0.99544265  0.50569114  0.52664335    -0.01520
C2044       C  0.98746198  0.52153509  0.00360665     0.08160
C2045       C  0.00124966  0.52602320  0.97682423    -0.01630
C2046       C  0.02214771  0.51391788  0.97233665    -0.01640
C2047       C  0.03030205  0.49846256  0.99554894     0.08290
C2048       C  0.01700227  0.49452953  0.52288913    -0.01830
Br2049     Br  0.02869599  0.47434026  0.55557303    -0.00380
Br2050     Br  0.97728800  0.50007860  0.56410287    -0.00450
Br2051     Br  0.03882212  0.51712820  0.93321371    -0.00410
Br2052     Br  0.99143883  0.54829211  0.94563994    -0.00400
C2053       C  0.90136653  0.48852610  0.89767922    -0.01520
C2054       C  0.91310443  0.50940609  0.90467174     0.08160
C2055       C  0.92401763  0.52177597  0.87980809    -0.01630
C2056       C  0.91984077  0.51544324  0.84833856    -0.01640
C2057       C  0.90829970  0.49463837  0.84142403     0.08290
C2058       C  0.90050817  0.48043561  0.86633583    -0.01830
Br2059     Br  0.89024248  0.44929390  0.85822704    -0.00380
Br2060     Br  0.88814478  0.46974382  0.93089416    -0.00450
Br2061     Br  0.93143611  0.53468027  0.81464119    -0.00410
Br2062     Br  0.94600841  0.54656515  0.88731182    -0.00400
C2063       C  0.88155509  0.50173740  0.59978337    -0.01520
C2064       C  0.89681421  0.52012948  0.59186374     0.08160
C2065       C  0.91177188  0.52906807  0.61559014    -0.01630
C2066       C  0.91193470  0.51926911  0.64601120    -0.01640
C2067       C  0.89752250  0.50039718  0.65341217     0.08290
C2068       C  0.88215769  0.49176345  0.63034290    -0.01830
Br2069     Br  0.86206087  0.46621261  0.64081340    -0.00380
Br2070     Br  0.85930425  0.49040812  0.56934081    -0.00450
Br2071     Br  0.93362501  0.53048620  0.67705204    -0.00410
Br2072     Br  0.93401804  0.55334836  0.60665185    -0.00400
C2073       C  0.74416989  0.73981199  0.86366210    -0.01520
C2074       C  0.76725428  0.73590085  0.87380830     0.08160
C2075       C  0.78018995  0.75454073  0.88638379    -0.01630
C2076       C  0.77010514  0.77670140  0.88916303    -0.01640
C2077       C  0.74702046  0.78064822  0.87896777     0.08290
C2078       C  0.73409772  0.76199917  0.86634343    -0.01830
Br2079     Br  0.70292486  0.76679246  0.85089014    -0.00380
Br2080     Br  0.72647680  0.71517873  0.84397340    -0.00450
Br2081     Br  0.78794345  0.80128952  0.90872307    -0.00410
Br2082     Br  0.81153157  0.74981114  0.90128949    -0.00400
C2083       C  0.74597994  0.67185215  0.97541253    -0.01520
C2084       C  0.76222835  0.65507862  0.96665722     0.08160
C2085       C  0.77287893  0.64114348  0.98961058    -0.01630
C2086       C  0.76751156  0.64411945  0.52179199    -0.01640
C2087       C  0.75092666  0.66101218  0.53110488     0.08290
C2088       C  0.74089386  0.67556849  0.50739649    -0.01830
Br2089     Br  0.72147009  0.70217228  0.51685903    -0.00380
Br2090     Br  0.73110446  0.69026212  0.94292374    -0.00450
Br2091     Br  0.78508074  0.62630830  0.55224416    -0.00410
Br2092     Br  0.79527767  0.61822668  0.97651138    -0.00400
C2093       C  0.78249231  0.64658808  0.75474657    -0.01520
C2094       C  0.76789213  0.64695106  0.78148959     0.08160
C2095       C  0.74359382  0.64582956  0.77694067    -0.01630
C2096       C  0.73412533  0.64566700  0.74612199    -0.01640
C2097       C  0.74869297  0.64742185  0.71942624     0.08290
C2098       C  0.77301710  0.64726302  0.72396164    -0.01830
Br2099     Br  0.79385133  0.65007628  0.68847843    -0.00380
Br2100     Br  0.81572337  0.64487805  0.76005266    -0.00450
Br2101     Br  0.70097503  0.64278100  0.74072967    -0.00410
Br2102     Br  0.72272398  0.64651505  0.81258706    -0.00400
C2103       C  0.86633885  0.61400583  0.89960325    -0.01520
C2104       C  0.85474282  0.63239375  0.91447152     0.08160
C2105       C  0.85789638  0.63596660  0.94731708    -0.01630
C2106       C  0.87107601  0.62006752  0.96541642    -0.01640
C2107       C  0.88143040  0.60077745  0.95070643     0.08290
C2108       C  0.87930880  0.59815459  0.91763345    -0.01830
Br2109     Br  0.89299780  0.57204535  0.89681017    -0.00380
Br2110     Br  0.86413029  0.61047389  0.85427928    -0.00450
Br2111     Br  0.87275795  0.62314311  0.51072675    -0.00410
Br2112     Br  0.84262855  0.66148965  0.96807385    -0.00400
loop_ 
_geom_bond_atom_site_label_1 
_geom_bond_atom_site_label_2 
_geom_bond_distance 
_geom_bond_site_symmetry_2 
_ccdc_geom_bond_type 
O1            C4   1.271       .  A
O1           Cd6   2.480       .  S
C2           O11   1.268       .  A
C2            O7   1.269       .  A
C2         C1038   1.494       .  S
O3            C9   1.273       .  A
O3           Cd6   2.496       .  S
C4           O12   1.262       .  A
C4         C1028   1.460       .  S
C5           O10   1.270       .  A
C5            O8   1.266       .  A
C5         C1048   1.483       .  S
Cd6          O13   2.409       .  S
Cd6          O12   2.368       .  S
Cd6          O11   2.457       .  S
Cd6           O7   2.480       .  S
Cd6          O10   2.505       .  S
Cd6           O8   2.433       .  S
C9           O13   1.263       .  A
C9         C1018   1.488       .  S
O14          C17   1.272       .  A
O14         Cd19   2.467       .  S
C15          O24   1.267       .  A
C15          O20   1.268       .  A
C15        C1008   1.496       .  S
O16        C1078   1.275       .  A
O16         Cd19   2.506       .  S
C17          O25   1.260       .  A
C17         C998   1.480       .  S
C18          O23   1.273       .  A
C18          O21   1.265       .  A
C18        C1051   1.488       .  S
Cd19         O25   2.381       .  S
Cd19         O23   2.524       .  S
Cd19         O21   2.446       .  S
Cd19       O1082   2.415       .  S
Cd19       O1080   2.452       .  S
Cd19       O1076   2.483       .  S
O20       Cd1075   2.483   1_554  S
C22          O26   1.264       .  A
C22        O1072   1.275       .  A
C22        C2044   1.482       .  S
O24       Cd1075   2.452   1_554  S
O26       Cd1075   2.415   1_554  S
O27          C30   1.272       .  A
O27         Cd32   2.472       .  S
C28          O37   1.268       .  A
C28          O33   1.269       .  A
C28        C1041   1.494       .  S
O29          C35   1.276       .  A
O29         Cd32   2.501       .  S
C30          O38   1.260       .  A
C30        C1031   1.495       .  S
C31          O36   1.272       .  A
C31          O34   1.265       .  A
C31         C981   1.485       .  S
Cd32         O39   2.409       .  S
Cd32         O38   2.361       .  S
Cd32         O37   2.460       .  S
Cd32         O33   2.477       .  S
Cd32         O36   2.520       .  S
Cd32         O34   2.448       .  S
C35          O39   1.264       .  A
C35         C968   1.490       .  S
O40          C43   1.273       .  A
O40       Cd1101   2.469       .  S
C41          O50   1.268       .  A
C41          O46   1.269       .  A
C41         C958   1.482       .  S
O42          C48   1.273       .  A
O42         Cd45   2.507       .  S
C43          O51   1.263       .  A
C43         C948   1.459       .  S
C44          O49   1.271       .  A
C44          O47   1.266       .  A
C44         C978   1.480       .  S
Cd45         O52   2.415       .  S
Cd45         O50   2.436       .  S
Cd45         O46   2.470       .  S
Cd45       O1096   2.469       .  S
Cd45       O1107   2.338       .  S
Cd45       O1105   2.495       .  S
Cd45       O1103   2.434       .  S
O47       Cd1101   2.434       .  S
C48          O52   1.261       .  A
C48         C938   1.502       .  S
O49       Cd1101   2.495       .  S
O51       Cd1101   2.338       .  S
O53          C56   1.273       .  A
O53         Cd58   2.444       .  S
C54          O63   1.271       .  A
C54          O59   1.269       .  A
C54         C918   1.492       .  S
O55          C61   1.276       .  A
O55         Cd58   2.484       .  S
C56          O64   1.262       .  A
C56         C908   1.471       .  S
C57          O62   1.274       .  A
C57          O60   1.264       .  A
C57         C928   1.490       .  S
Cd58         O65   2.407       .  S
Cd58         O64   2.379       .  S
Cd58         O63   2.448       .  S
Cd58         O59   2.452       .  S
Cd58         O62   2.504       .  S
Cd58         O60   2.417       .  S
C61          O65   1.266       .  A
C61         C898   1.488       .  S
O66          C69   1.270       .  A
O66         Cd71   2.474       .  S
C67          O76   1.264       .  A
C67          O72   1.276       .  A
C67         C951   1.470       .  S
O68          C74   1.274       .  A
O68         Cd71   2.497       .  S
C69          O77   1.267       .  A
C69         C961   1.475       .  S
C70          O75   1.274       .  A
C70          O73   1.262       .  A
C70         C888   1.493       .  S
Cd71         O78   2.391       .  S
Cd71         O77   2.432       .  S
Cd71         O76   2.338       .  S
Cd71         O72   2.459       .  S
Cd71         O75   2.488       .  S
Cd71         O73   2.418       .  S
C74          O78   1.267       .  A
C74         C931   1.491       .  S
O79          C82   1.274       .  A
O79         Cd84   2.443       .  S
C80          O89   1.268       .  A
C80          O85   1.268       .  A
C80         C921   1.491       .  S
O81          C87   1.274       .  A
O81         Cd84   2.486       .  S
C82          O90   1.266       .  A
C82         C911   1.465       .  S
C83          O88   1.274       .  A
C83          O86   1.262       .  A
C83         C878   1.503       .  S
Cd84         O91   2.405       .  S
Cd84         O90   2.363       .  S
Cd84         O89   2.452       .  S
Cd84         O85   2.466       .  S
Cd84         O88   2.537       .  S
Cd84         O86   2.374       .  S
C87          O91   1.262       .  A
C87         C868   1.499       .  S
O92          C95   1.276       .  A
O92         Cd97   2.461       .  S
C93         O102   1.270       .  A
C93          O98   1.272       .  A
C93        C1011   1.484       .  S
O94         C100   1.277       .  A
O94         Cd97   2.518       .  S
C95         O103   1.264       .  A
C95        C1001   1.469       .  S
C96         O101   1.274       .  A
C96          O99   1.266       .  A
C96         C881   1.497       .  S
Cd97        O104   2.413       .  S
Cd97        O103   2.397       .  S
Cd97        O102   2.469       .  S
Cd97         O98   2.469       .  S
Cd97        O101   2.497       .  S
Cd97         O99   2.423       .  S
C100        O104   1.261       .  A
C100        C858   1.506       .  S
O105        C108   1.274       .  A
O105       Cd110   2.459       .  S
C106        O115   1.269       .  A
C106        O111   1.270       .  A
C106        C838   1.498       .  S
O107        C113   1.275       .  A
O107       Cd110   2.513       .  S
C108        O116   1.262       .  A
C108        C831   1.478       .  S
C109        O114   1.277       .  A
C109        O112   1.267       .  A
C109        C901   1.487       .  S
Cd110       O117   2.425       .  S
Cd110       O116   2.374       .  S
Cd110       O115   2.441       .  S
Cd110       O111   2.465       .  S
Cd110       O114   2.485       .  S
Cd110       O112   2.408       .  S
C113        O117   1.265       .  A
C113        C851   1.488       .  S
O118        C121   1.268       .  A
O118       Cd123   2.460       .  S
C119        O128   1.263       .  A
C119        O124   1.272       .  A
C119        C811   1.460       .  S
O120        C126   1.274       .  A
O120       Cd123   2.484       .  S
C121        O129   1.269       .  A
C121        C821   1.505       .  S
C122        O127   1.273       .  A
C122        O125   1.265       .  A
C122        C848   1.482       .  S
Cd123       O130   2.417       .  S
Cd123       O129   2.441       .  S
Cd123      O1184   2.355       .  S
Cd123      O1180   2.464       .  S
Cd123      O1183   2.507       .  S
Cd123      O1181   2.397       .  S
O124      Cd1179   2.464   1_554  S
O125      Cd1179   2.397   1_554  S
C126        O130   1.264       .  A
C126        C798   1.502       .  S
O127      Cd1179   2.507   1_554  S
O128      Cd1179   2.355   1_554  S
O131        C134   1.271       .  A
O131       Cd136   2.462       .  S
C132        O141   1.266       .  A
C132        O137   1.276       .  A
C132        C828   1.470       .  S
O133        C139   1.277       .  A
O133       Cd136   2.498       .  S
C134        O142   1.270       .  A
C134        C841   1.488       .  S
C135        O140   1.275       .  A
C135        O138   1.265       .  A
C135        C788   1.485       .  S
Cd136       O143   2.382       .  S
Cd136       O142   2.438       .  S
Cd136       O141   2.397       .  S
Cd136       O137   2.428       .  S
Cd136       O140   2.490       .  S
Cd136       O138   2.407       .  S
C139        O143   1.263       .  A
C139        C871   1.495       .  S
O144        C147   1.270       .  A
O144       Cd149   2.449   1_554  S
C145        O154   1.262       .  A
C145        O150   1.272       .  A
C145        C771   1.460       .  S
O146        C152   1.273   1_556  A
O146       Cd149   2.479       .  S
C147        O155   1.271       .  A
C147        C778   1.478       .  S
C148        O153   1.274       .  A
C148        O151   1.266       .  A
C148        C791   1.483       .  S
Cd149       O156   2.412   1_556  S
Cd149       O155   2.436   1_556  S
Cd149      O1210   2.349       .  S
Cd149      O1206   2.459       .  S
Cd149      O1209   2.494       .  S
Cd149      O1207   2.390       .  S
O150      Cd1205   2.459       .  S
O151      Cd1205   2.390       .  S
C152        O156   1.262       .  A
C152        C758   1.500       .  S
O153      Cd1205   2.494       .  S
O154      Cd1205   2.349       .  S
O157        C160   1.270       .  A
O157       Cd162   2.465       .  S
C158        O167   1.264       .  A
C158        O163   1.275       .  A
C158        C728   1.476       .  S
O159        C165   1.278       .  A
O159       Cd162   2.493       .  S
C160        O168   1.269       .  A
C160        C741   1.494       .  S
C161        O166   1.275       .  A
C161        O164   1.265       .  A
C161        C748   1.489       .  S
Cd162       O169   2.397       .  S
Cd162       O168   2.443       .  S
Cd162       O167   2.378       .  S
Cd162       O163   2.439       .  S
Cd162       O166   2.513       .  S
Cd162       O164   2.427       .  S
C165        O169   1.266       .  A
C165        C971   1.491       .  S
O170        C173   1.272   1_545  A
O170       Cd175   2.475   1_545  S
C171        O180   1.269       .  A
C171        O176   1.268   1_565  A
C171        C818   1.484   1_565  S
O172        C178   1.272       .  A
O172       Cd175   2.505       .  S
C173        O181   1.261       .  A
C173        C808   1.468   1_565  S
C174        O179   1.274       .  A
C174        O177   1.263   1_565  A
C174        C718   1.486   1_565  S
Cd175       O182   2.416       .  S
Cd175       O181   2.336       .  S
Cd175       O180   2.459       .  S
Cd175       O176   2.457   1_565  S
Cd175       O179   2.506       .  S
Cd175       O177   2.414   1_565  S
C178        O182   1.267       .  A
C178        C751   1.486       .  S
O183        C186   1.276   1_545  A
O183       Cd188   2.453   1_545  S
C184        O193   1.270       .  A
C184        O189   1.271   1_565  A
C184        C781   1.477   1_565  S
O185        C191   1.275       .  A
O185       Cd188   2.487       .  S
C186        O194   1.263       .  A
C186        C768   1.468       .  S
C187        O192   1.275       .  A
C187        O190   1.264   1_565  A
C187        C698   1.490   1_565  S
Cd188       O195   2.396       .  S
Cd188       O194   2.339       .  S
Cd188       O193   2.428       .  S
Cd188       O189   2.461   1_565  S
Cd188       O192   2.481       .  S
Cd188       O190   2.409   1_565  S
C191        O195   1.268       .  A
C191        C708   1.488       .  S
O196        C199   1.275       .  A
O196       Cd201   2.435       .  S
C197        O206   1.270       .  A
C197        O202   1.271       .  A
C197        C738   1.492       .  S
O198        C204   1.275       .  A
O198       Cd201   2.497       .  S
C199        O207   1.265       .  A
C199        C731   1.469       .  S
C200        O205   1.278       .  A
C200        O203   1.265       .  A
C200       C1021   1.489       .  S
Cd201       O208   2.413       .  S
Cd201       O207   2.384       .  S
Cd201       O206   2.440       .  S
Cd201       O202   2.460       .  S
Cd201       O205   2.492       .  S
Cd201       O203   2.392       .  S
C204        O208   1.265       .  A
C204        C711   1.489       .  S
O209        C212   1.273   1_545  A
O209       Cd214   2.460   1_545  S
C210        O219   1.270       .  A
C210        O215   1.270   1_565  A
C210        C678   1.480   1_565  S
O211       C1273   1.273   1_554  A
O211       Cd214   2.479       .  S
C212        O220   1.263       .  A
C212        C671   1.461   1_565  S
C213        O218   1.274       .  A
C213        O216   1.266       .  A
C213        C691   1.488       .  S
Cd214       O220   2.351       .  S
Cd214       O218   2.499       .  S
Cd214       O216   2.386       .  S
Cd214      O1277   2.408   1_564  S
Cd214      O1275   2.430   1_554  S
Cd214      O1271   2.459   1_564  S
O215      Cd1270   2.459   1_545  S
C217        O221   1.261   1_565  A
C217       O1267   1.273       .  A
C217       C1817   1.501   1_565  S
O219      Cd1270   2.430       .  S
O221      Cd1270   2.408   1_545  S
O222        C225   1.270       .  A
O222       Cd227   2.465       .  S
C223        O232   1.264       .  A
C223        O228   1.274       .  A
C223        C651   1.473       .  S
O224        C230   1.273       .  A
O224       Cd227   2.500       .  S
C225        O233   1.269       .  A
C225        C658   1.492       .  S
C226        O231   1.276       .  A
C226        O229   1.265       .  A
C226        C638   1.490       .  S
Cd227       O234   2.418       .  S
Cd227       O233   2.432       .  S
Cd227       O232   2.376       .  S
Cd227       O228   2.448       .  S
Cd227       O231   2.486       .  S
Cd227       O229   2.398       .  S
C230        O234   1.264       .  A
C230        C688   1.488       .  S
O235        C238   1.270       .  A
O235       Cd240   2.458       .  S
C236        O245   1.261       .  A
C236        O241   1.274       .  A
C236        C668   1.469       .  S
O237        C243   1.274       .  A
O237       Cd240   2.492       .  S
C238        O246   1.270       .  A
C238        C681   1.476       .  S
C239        O244   1.275       .  A
C239        O242   1.264       .  A
C239        C701   1.490       .  S
Cd240       O247   2.400       .  S
Cd240       O246   2.438       .  S
Cd240       O245   2.339       .  S
Cd240       O241   2.463       .  S
Cd240       O244   2.486       .  S
Cd240       O242   2.409       .  S
C243        O247   1.268       .  A
C243        C631   1.483       .  S
O248        C251   1.273       .  A
O248       Cd253   2.459       .  S
C249        O258   1.271       .  A
C249        O254   1.270       .  A
C249        C618   1.498       .  S
O250        C256   1.275       .  A
O250       Cd253   2.485       .  S
C251        O259   1.261       .  A
C251        C608   1.477       .  S
C252        O257   1.275       .  A
C252        O255   1.265       .  A
C252        C628   1.489       .  S
Cd253       O260   2.404       .  S
Cd253       O259   2.390       .  S
Cd253       O258   2.448       .  S
Cd253       O254   2.462       .  S
Cd253       O257   2.510       .  S
Cd253       O255   2.421       .  S
C256        O260   1.264       .  A
C256        C598   1.500       .  S
O261        C264   1.272       .  A
O261       Cd266   2.464       .  S
C262        O271   1.271       .  A
C262        O267   1.269       .  A
C262        C621   1.493       .  S
O263        C269   1.273       .  A
O263       Cd266   2.489       .  S
C264        O272   1.263       .  A
C264        C611   1.467       .  S
C265        O270   1.275       .  A
C265        O268   1.264       .  A
C265        C591   1.491       .  S
Cd266       O273   2.396       .  S
Cd266       O272   2.380       .  S
Cd266       O271   2.460       .  S
Cd266       O267   2.457       .  S
Cd266       O270   2.524       .  S
Cd266       O268   2.371       .  S
C269        O273   1.261       .  A
C269        C578   1.502       .  S
O274        C277   1.271       .  A
O274       Cd279   2.467       .  S
C275        O284   1.263       .  A
C275        O280   1.274       .  A
C275        C561   1.471       .  S
O276        C282   1.272       .  A
O276       Cd279   2.489       .  S
C277        O285   1.269       .  A
C277        C571   1.481       .  S
C278        O283   1.276       .  A
C278        O281   1.264       .  A
C278        C721   1.486       .  S
Cd279       O286   2.425       .  S
Cd279       O285   2.435       .  S
Cd279       O284   2.378       .  S
Cd279       O280   2.455       .  S
Cd279       O283   2.485       .  S
Cd279       O281   2.408       .  S
C282        O286   1.266       .  A
C282        C588   1.490       .  S
O287        C290   1.273   1_545  A
O287       Cd292   2.473   1_545  S
C288        O297   1.271       .  A
C288        O293   1.270   1_565  A
C288        C568   1.478       .  S
O289        C295   1.274       .  A
O289      Cd1348   2.474       .  S
C290        O298   1.261       .  A
C290        C558   1.471   1_565  S
C291        O296   1.272       .  A
C291        O294   1.265       .  A
C291        C548   1.489       .  S
Cd292       O298   2.373       .  S
Cd292       O296   2.487       .  S
Cd292       O294   2.422       .  S
Cd292      O1345   2.474       .  S
Cd292      O1355   2.416   1_565  S
Cd292      O1353   2.442       .  S
Cd292      O1349   2.458   1_565  S
O293      Cd1348   2.458   1_544  S
C295        O299   1.265   1_566  A
C295       C1857   1.495       .  S
O297      Cd1348   2.442   1_554  S
O299      Cd1348   2.416   1_544  S
O300        C303   1.272       .  A
O300       Cd305   2.446       .  S
C301        O310   1.268       .  A
C301        O306   1.268       .  A
C301        C661   1.488       .  S
O302        C308   1.274       .  A
O302       Cd305   2.481       .  S
C303        O311   1.265       .  A
C303        C648   1.466       .  S
C304        O309   1.273       .  A
C304        O307   1.263       .  A
C304        C551   1.492       .  S
Cd305       O312   2.410       .  S
Cd305       O311   2.377       .  S
Cd305       O310   2.456       .  S
Cd305       O306   2.459       .  S
Cd305       O309   2.524       .  S
Cd305       O307   2.372       .  S
C308        O312   1.264       .  A
C308        C538   1.477       .  S
O313        C316   1.276       .  A
O313       Cd318   2.478       .  S
C314        O323   1.268       .  A
C314        O319   1.271       .  A
C314        C518   1.482       .  S
O315        C321   1.272       .  A
O315       Cd318   2.495       .  S
C316        O324   1.263       .  A
C316        C511   1.473       .  S
C317        O322   1.274       .  A
C317        O320   1.263       .  A
C317        C891   1.494       .  S
Cd318       O325   2.441       .  S
Cd318       O324   2.324       .  S
Cd318       O323   2.454       .  S
Cd318       O319   2.486       .  S
Cd318       O322   2.486       .  S
Cd318       O320   2.419       .  S
C321        O325   1.267       .  A
C321        C528   1.482       .  S
O326        C329   1.274       .  A
O326       Cd331   2.455       .  S
C327        O336   1.268       .  A
C327        O332   1.270       .  A
C327        C501   1.495       .  S
O328        C334   1.274       .  A
O328       Cd331   2.514       .  S
C329        O337   1.261       .  A
C329        C488   1.487       .  S
C330        O335   1.277       .  A
C330        O333   1.266       .  A
C330        C541   1.480       .  S
Cd331       O338   2.440       .  S
Cd331       O337   2.365       .  S
Cd331       O336   2.447       .  S
Cd331       O332   2.470       .  S
Cd331       O335   2.491       .  S
Cd331       O333   2.406       .  S
C334        O338   1.265       .  A
C334        C531   1.485       .  S
O339        C342   1.272       .  A
O339       Cd344   2.477       .  S
C340        O349   1.267       .  A
C340        O345   1.269       .  A
C340        C468   1.490       .  S
O341        C347   1.269       .  A
O341       Cd344   2.509       .  S
C342        O350   1.264       .  A
C342        C461   1.466       .  S
C343        O348   1.270       .  A
C343        O346   1.262       .  A
C343        C581   1.492       .  S
Cd344       O351   2.429       .  S
Cd344       O350   2.377       .  S
Cd344       O349   2.458       .  S
Cd344       O345   2.483       .  S
Cd344       O348   2.485       .  S
Cd344       O346   2.429       .  S
C347        O351   1.265       .  A
C347        C481   1.489       .  S
O352        C355   1.271       .  A
O352      Cd1413   2.497       .  S
C353        O362   1.271       .  A
C353        O358   1.269       .  A
C353        C521   1.488       .  S
O354        C360   1.272       .  A
O354      Cd1413   2.522       .  S
C355        O363   1.261       .  A
C355        C508   1.471       .  S
C356        O361   1.270   1_554  A
C356        O359   1.260       .  A
C356        C941   1.503       .  S
Cd357       O362   2.455   1_556  S
Cd357       O358   2.473   1_556  S
Cd357       O361   2.501       .  S
Cd357       O359   2.434   1_556  S
Cd357      O1408   2.497       .  S
Cd357      O1410   2.522       .  S
Cd357      O1420   2.432       .  S
Cd357      O1419   2.344       .  S
C360        O364   1.266       .  A
C360        C478   1.487       .  S
O363      Cd1413   2.344       .  S
O364      Cd1413   2.432       .  S
O365        C368   1.274       .  A
O365       Cd370   2.444       .  S
C366        O375   1.268       .  A
C366        O371   1.269       .  A
C366        C498   1.490       .  S
O367        C373   1.274       .  A
O367       Cd370   2.516       .  S
C368        O376   1.265       .  A
C368        C491   1.459       .  S
C369        O374   1.275       .  A
C369        O372   1.262       .  A
C369        C641   1.490       .  S
Cd370       O377   2.379       .  S
Cd370       O376   2.369       .  S
Cd370       O375   2.448       .  S
Cd370       O371   2.472       .  S
Cd370       O374   2.497       .  S
Cd370       O372   2.399       .  S
C373        O377   1.264       .  A
C373        C448   1.492       .  S
O378        C381   1.276       .  A
O378       Cd383   2.447       .  S
C379        O388   1.267       .  A
C379        O384   1.271       .  A
C379        C441   1.497       .  S
O380        C386   1.275       .  A
O380       Cd383   2.492       .  S
C381        O389   1.265       .  A
C381        C428   1.472       .  S
C382        O387   1.275       .  A
C382        O385   1.262       .  A
C382        C861   1.504       .  S
Cd383       O390   2.415       .  S
Cd383       O389   2.376       .  S
Cd383       O388   2.432       .  S
Cd383       O384   2.466       .  S
Cd383       O387   2.491       .  S
Cd383       O385   2.411       .  S
C386        O390   1.266       .  A
C386        C451   1.490       .  S
O391        C394   1.268       .  A
O391       Cd396   2.468       .  S
C392        O401   1.264       .  A
C392        O397   1.272       .  A
C392        C458   1.475       .  S
O393        C399   1.273       .  A
O393       Cd396   2.480       .  S
C394        O402   1.269       .  A
C394        C471   1.499       .  S
C395        O400   1.275       .  A
C395        O398   1.260       .  A
C395        C418   1.503       .  S
Cd396       O403   2.421       .  S
Cd396       O402   2.460       .  S
Cd396       O401   2.388       .  S
Cd396       O397   2.462       .  S
Cd396       O400   2.548       .  S
Cd396       O398   2.368       .  S
C399        O403   1.264       .  A
C399        C601   1.499       .  S
O404        C407   1.269       .  A
O404       Cd409   2.450       .  S
C405        O414   1.261       .  A
C405        O410   1.270       .  A
C405        C431   1.467       .  S
O406        C412   1.274       .  A
O406       Cd409   2.507       .  S
C407        O415   1.271       .  A
C407        C438   1.480       .  S
C408        O413   1.269       .  A
C408        O411   1.265   1_554  A
C408        C421   1.493       .  S
Cd409       O416   2.414       .  S
Cd409       O415   2.462       .  S
Cd409      O1470   2.376       .  S
Cd409      O1466   2.472       .  S
Cd409      O1469   2.496       .  S
Cd409      O1467   2.441       .  S
O410      Cd1465   2.472   1_554  S
O411      Cd1465   2.441       .  S
C412        O416   1.263       .  A
C412        C991   1.478       .  S
O413      Cd1465   2.496   1_554  S
O414      Cd1465   2.376   1_554  S
C417        C418   1.420       .  A
C417        C422   1.419       .  A
C417       Br424   1.929       .  S
C418        C419   1.419       .  A
C419        C420   1.406       .  A
C419       Br426   1.942       .  S
C420        C421   1.416       .  A
C420       Br425   1.940       .  S
C421        C422   1.413       .  A
C422       Br423   1.930       .  S
C427        C428   1.408       .  A
C427        C432   1.403       .  A
C427       Br434   1.934       .  S
C428        C429   1.418       .  A
C429        C430   1.404       .  A
C429       Br436   1.933       .  S
C430        C431   1.405       .  A
C430       Br435   1.934       .  S
C431        C432   1.413       .  A
C432       Br433   1.933       .  S
C437        C438   1.407       .  A
C437        C442   1.408       .  A
C437       Br444   1.934       .  S
C438        C439   1.406       .  A
C439        C440   1.412       .  A
C439       Br446   1.929       .  S
C440        C441   1.420       .  A
C440       Br445   1.932       .  S
C441        C442   1.423       .  A
C442       Br443   1.937       .  S
C447        C448   1.419       .  A
C447        C452   1.417       .  A
C447       Br454   1.930       .  S
C448        C449   1.411       .  A
C449        C450   1.404       .  A
C449       Br456   1.938       .  S
C450        C451   1.417       .  A
C450       Br455   1.937       .  S
C451        C452   1.411       .  A
C452       Br453   1.930       .  S
C457        C458   1.418       .  A
C457       C1518   1.404   1_554  A
C457       Br464   1.935       .  S
C458        C459   1.409       .  A
C459       C1516   1.404   1_554  A
C459       Br466   1.931       .  S
C460        C461   1.409       .  A
C460       C1515   1.404       .  A
C460       Br465   1.927       .  S
C461        C462   1.404       .  A
C462       C1513   1.404       .  A
C462       Br463   1.932       .  S
C467        C468   1.411       .  A
C467        C472   1.413       .  A
C467       Br474   1.934       .  S
C468        C469   1.414       .  A
C469        C470   1.412       .  A
C469       Br476   1.934       .  S
C470        C471   1.417       .  A
C470       Br475   1.934       .  S
C471        C472   1.421       .  A
C472       Br473   1.935       .  S
C477        C478   1.408       .  A
C477        C482   1.417       .  A
C477      Br1540   1.927       .  S
C478        C479   1.412       .  A
C479        C480   1.406       .  A
C479       Br486   1.926       .  S
C480        C481   1.409       .  A
C480       Br485   1.933       .  S
C481        C482   1.419       .  A
C482       Br483   1.930       .  S
Br484      C1533   1.927   1_554  S
C487        C488   1.417       .  A
C487        C492   1.405       .  A
C487       Br494   1.935       .  S
C488        C489   1.426       .  A
C489        C490   1.401       .  A
C489       Br496   1.941       .  S
C490        C491   1.400       .  A
C490       Br495   1.936       .  S
C491        C492   1.406       .  A
C492       Br493   1.933       .  S
C497        C498   1.412       .  A
C497       C1558   1.411   1_554  A
C497       Br504   1.934       .  S
C498        C499   1.415       .  A
C499        C500   1.411   1_554  A
C499       Br506   1.934       .  S
C500       C1557   1.416       .  A
C500      Br1561   1.934       .  S
C501        C502   1.419       .  A
C501       C1556   1.416       .  A
C502       C1553   1.411       .  A
C502       Br503   1.934       .  S
Br505      C1556   1.934       .  S
C507        C508   1.412       .  A
C507        C512   1.409       .  A
C507       Br514   1.931       .  S
C508        C509   1.409       .  A
C509        C510   1.398       .  A
C509       Br516   1.937       .  S
C510        C511   1.413       .  A
C510       Br515   1.939       .  S
C511        C512   1.413       .  A
C512       Br513   1.931       .  S
C517        C518   1.409       .  A
C517        C522   1.406       .  A
C517       Br524   1.931       .  S
C518        C519   1.409       .  A
C519        C520   1.417       .  A
C519       Br526   1.927       .  S
C520        C521   1.416       .  A
C520       Br525   1.928       .  S
C521        C522   1.414       .  A
C522       Br523   1.936       .  S
C527        C528   1.417       .  A
C527        C532   1.414       .  A
C527       Br534   1.924       .  S
C528        C529   1.402       .  A
C529        C530   1.408       .  A
C529       Br536   1.931       .  S
C530        C531   1.413       .  A
C530       Br535   1.914       .  S
C531        C532   1.406       .  A
C532       Br533   1.929       .  S
C537        C538   1.407       .  A
C537        C542   1.407       .  A
C537       Br544   1.933       .  S
C538        C539   1.414       .  A
C539        C540   1.410       .  A
C539       Br546   1.932       .  S
C540        C541   1.408       .  A
C540       Br545   1.930       .  S
C541        C542   1.415       .  A
C542       Br543   1.930       .  S
C547        C548   1.412       .  A
C547        C552   1.417       .  A
C547       Br554   1.930       .  S
C548        C549   1.417       .  A
C549        C550   1.404       .  A
C549       Br556   1.938       .  S
C550        C551   1.412       .  A
C550       Br555   1.939       .  S
C551        C552   1.418       .  A
C552       Br553   1.930       .  S
C557        C558   1.406       .  A
C557        C562   1.404       .  A
C557       Br564   1.933       .  S
C558        C559   1.416   1_545  A
C559        C560   1.404       .  A
C559       Br566   1.935       .  S
C560        C561   1.407   1_565  A
C560       Br565   1.935       .  S
C561        C562   1.416       .  A
C562       Br563   1.933       .  S
C567        C568   1.410   1_545  A
C567        C572   1.413       .  A
C567       Br574   1.928   1_545  S
C568        C569   1.410   1_565  A
C569        C570   1.405       .  A
C569       Br576   1.934       .  S
C570        C571   1.413       .  A
C570       Br575   1.934       .  S
C571        C572   1.412       .  A
C572       Br573   1.928       .  S
C577        C578   1.428       .  A
C577        C582   1.410       .  A
C577       Br584   1.940       .  S
C578        C579   1.419       .  A
C579        C580   1.411       .  A
C579       Br586   1.937       .  S
C580        C581   1.417       .  A
C580       Br585   1.938       .  S
C581        C582   1.411       .  A
C582       Br583   1.938       .  S
C587        C588   1.417       .  A
C587        C592   1.404       .  A
C587       Br594   1.938       .  S
C588        C589   1.412       .  A
C589        C590   1.417       .  A
C589       Br596   1.929       .  S
C590        C591   1.418       .  A
C590       Br595   1.929       .  S
C591        C592   1.411       .  A
C592       Br593   1.938       .  S
C597        C598   1.415       .  A
C597        C602   1.413       .  A
C597       Br604   1.937       .  S
C598        C599   1.424       .  A
C599        C600   1.412       .  A
C599       Br606   1.941       .  S
C600        C601   1.415       .  A
C600       Br605   1.938       .  S
C601        C602   1.423       .  A
C602       Br603   1.939       .  S
C607        C608   1.410       .  A
C607        C612   1.404       .  A
C607       Br614   1.933       .  S
C608        C609   1.421       .  A
C609        C610   1.405       .  A
C609       Br616   1.938       .  S
C610        C611   1.404       .  A
C610       Br615   1.932       .  S
C611        C612   1.411       .  A
C612       Br613   1.933       .  S
C617        C618   1.421       .  A
C617        C622   1.413   1_554  A
C617       Br624   1.935       .  S
C618       C1675   1.416       .  A
C619        C620   1.411       .  A
C619       C1674   1.416       .  A
C619       Br626   1.935       .  S
C620        C621   1.416       .  A
C620       Br625   1.936       .  S
C621       C1678   1.412       .  A
C622       C1677   1.412       .  A
C622       Br623   1.934       .  S
C627        C628   1.410       .  A
C627        C632   1.416       .  A
C627       Br634   1.929       .  S
C628        C629   1.417       .  A
C629        C630   1.405       .  A
C629       Br636   1.929       .  S
C630        C631   1.405       .  A
C630       Br635   1.934       .  S
C631        C632   1.417       .  A
C632       Br633   1.930       .  S
C637        C638   1.419       .  A
C637        C642   1.410       .  A
C637       Br644   1.937       .  S
C638        C639   1.412       .  A
C639        C640   1.410       .  A
C639       Br646   1.935       .  S
C640        C641   1.419       .  A
C640       Br645   1.937       .  S
C641        C642   1.412       .  A
C642       Br643   1.934       .  S
C647        C648   1.405       .  A
C647       C1708   1.403       .  A
C647       Br654   1.934       .  S
C648        C649   1.411       .  A
C649       C1706   1.403       .  A
C649       Br656   1.932       .  S
C650        C651   1.410       .  A
C650       C1705   1.403   1_554  A
C650       Br655   1.934       .  S
C651        C652   1.419       .  A
C652       C1703   1.403   1_554  A
C652       Br653   1.936       .  S
C657        C658   1.415       .  A
C657        C662   1.409       .  A
C657       Br664   1.935       .  S
C658        C659   1.418       .  A
C659        C660   1.411       .  A
C659       Br666   1.934       .  S
C660        C661   1.412       .  A
C660       Br665   1.934       .  S
C661        C662   1.415       .  A
C662       Br663   1.935       .  S
C667        C668   1.413       .  A
C667        C672   1.406       .  A
C667       Br674   1.931       .  S
C668        C669   1.415       .  A
C669        C670   1.398       .  A
C669       Br676   1.939       .  S
C670        C671   1.406       .  A
C670       Br675   1.934       .  S
C671        C672   1.407       .  A
C672       Br673   1.931   1_545  S
C677        C678   1.413       .  A
C677        C682   1.404       .  A
C677       Br684   1.936   1_545  S
C678        C679   1.413       .  A
C679        C680   1.414       .  A
C679       Br686   1.928       .  S
C680        C681   1.409       .  A
C680       Br685   1.927       .  S
C681        C682   1.409       .  A
C682       Br683   1.935       .  S
C687        C688   1.417       .  A
C687        C692   1.404       .  A
C687       Br694   1.935       .  S
C688        C689   1.410       .  A
C689        C690   1.416       .  A
C689       Br696   1.929       .  S
C690        C691   1.418       .  A
C690       Br695   1.930       .  S
C691        C692   1.410       .  A
C692       Br693   1.937       .  S
C697        C698   1.412   1_565  A
C697        C702   1.410       .  A
C697       Br704   1.935       .  S
C698        C699   1.420       .  A
C699        C700   1.410       .  A
C699       Br706   1.937       .  S
C700        C701   1.411       .  A
C700       Br705   1.935       .  S
C701        C702   1.419   1_545  A
C702       Br703   1.936       .  S
C707        C708   1.409       .  A
C707        C712   1.406       .  A
C707       Br714   1.935       .  S
C708        C709   1.418       .  A
C709        C710   1.416       .  A
C709       Br716   1.931       .  S
C710        C711   1.410       .  A
C710       Br715   1.930       .  S
C711        C712   1.418       .  A
C712       Br713   1.937       .  S
C717        C718   1.415       .  A
C717        C722   1.409   1_655  A
C717       Br724   1.931       .  S
C718        C719   1.411   1_645  A
C719        C720   1.411       .  A
C719       Br726   1.932   1_455  S
C720        C721   1.418   1_565  A
C720       Br725   1.934       .  S
C721        C722   1.411       .  A
C722       Br723   1.934       .  S
C727        C728   1.411       .  A
C727        C732   1.404       .  A
C727       Br734   1.936       .  S
C728        C729   1.419       .  A
C729        C730   1.403       .  A
C729       Br736   1.939       .  S
C730        C731   1.407       .  A
C730       Br735   1.936       .  S
C731        C732   1.414       .  A
C732       Br733   1.935       .  S
C737        C738   1.416       .  A
C737        C742   1.411       .  A
C737       Br744   1.935       .  S
C738        C739   1.414       .  A
C739       C1796   1.411       .  A
C739       Br746   1.935       .  S
C740        C741   1.418       .  A
C740       C1795   1.411   1_554  A
C740       Br745   1.935       .  S
C741       C1798   1.415       .  A
C742       C1797   1.415       .  A
C742       Br743   1.935       .  S
C747        C748   1.410       .  A
C747        C752   1.417       .  A
C747       Br754   1.929       .  S
C748        C749   1.416       .  A
C749        C750   1.405       .  A
C749       Br756   1.927       .  S
C750        C751   1.406       .  A
C750       Br755   1.934       .  S
C751        C752   1.418       .  A
C752       Br753   1.930       .  S
C757        C758   1.424   1_566  A
C757       C1818   1.412       .  A
C757      Br1820   1.941       .  S
C758        C759   1.414       .  A
C759        C760   1.412       .  A
C759       Br766   1.939       .  S
C760        C761   1.426   1_554  A
C760       Br765   1.942       .  S
C761       C1273   1.501   1_545  S
C761       C1818   1.415   1_545  A
C762       C1813   1.412       .  A
C762       C1817   1.415   1_565  A
C762       Br763   1.939       .  S
Br764      C1813   1.941       .  S
C767        C768   1.412   1_545  A
C767        C772   1.406       .  A
C767       Br774   1.931       .  S
C768        C769   1.415       .  A
C769        C770   1.398   1_565  A
C769       Br776   1.938       .  S
C770        C771   1.406       .  A
C770       Br775   1.934       .  S
C771        C772   1.408       .  A
C772       Br773   1.931       .  S
C777        C778   1.411       .  A
C777        C782   1.403       .  A
C777       Br784   1.936       .  S
C778        C779   1.412       .  A
C779        C780   1.413       .  A
C779       Br786   1.928       .  S
C780        C781   1.409       .  A
C780       Br785   1.927   1_545  S
C781        C782   1.410       .  A
C782       Br783   1.934       .  S
C787        C788   1.410       .  A
C787        C792   1.415       .  A
C787       Br794   1.929       .  S
C788        C789   1.417       .  A
C789        C790   1.404       .  A
C789       Br796   1.935       .  S
C790        C791   1.407       .  A
C790      Br1851   1.935       .  S
C791        C792   1.416       .  A
C792       Br793   1.930       .  S
Br795      C1846   1.935   1_554  S
C797        C798   1.417   1_455  A
C797        C802   1.412       .  A
C797       Br804   1.937   1_455  S
C798       C1855   1.425   1_545  A
C799        C800   1.411   1_655  A
C799       C1854   1.425   1_564  A
C799       Br806   1.938       .  S
C800       C1857   1.412   1_554  A
C800       Br805   1.937       .  S
C801       C1351   1.495       .  S
C801        C802   1.420   1_565  A
C801       C1856   1.412       .  A
C802       Br803   1.939       .  S
C807        C808   1.412       .  A
C807        C812   1.408       .  A
C807       Br814   1.930       .  S
C808        C809   1.414       .  A
C809        C810   1.396       .  A
C809       Br816   1.939   1_545  S
C810        C811   1.404       .  A
C810       Br815   1.931   1_545  S
C811        C812   1.409       .  A
C812       Br813   1.931       .  S
C817        C818   1.407   1_565  A
C817        C822   1.413   1_565  A
C817       Br824   1.933       .  S
C818        C819   1.410       .  A
C819        C820   1.410       .  A
C819       Br826   1.934       .  S
C820        C821   1.423       .  A
C820       Br825   1.937       .  S
C821        C822   1.425       .  A
C822       Br823   1.935   1_545  S
C827        C828   1.406       .  A
C827       C1888   1.403       .  A
C827       Br834   1.937       .  S
C828        C829   1.413       .  A
C829       C1886   1.406       .  A
C829       Br836   1.934       .  S
C830        C831   1.412       .  A
C830       C1885   1.406   1_554  A
C830       Br835   1.935       .  S
C831        C832   1.421       .  A
C832       C1883   1.403   1_554  A
C832       Br833   1.939       .  S
C837        C838   1.418       .  A
C837        C842   1.411       .  A
C837       Br844   1.935       .  S
C838        C839   1.421       .  A
C839        C840   1.412       .  A
C839       Br846   1.935       .  S
C840        C841   1.411       .  A
C840       Br845   1.935       .  S
C841        C842   1.413       .  A
C842       Br843   1.934       .  S
C847        C848   1.416       .  A
C847        C852   1.417       .  A
C847       Br854   1.930       .  S
C848        C849   1.405       .  A
C849        C850   1.404       .  A
C849      Br1912   1.934   1_554  S
C850        C851   1.415       .  A
C850       Br855   1.927       .  S
C851        C852   1.410       .  A
C852       Br853   1.928       .  S
Br856      C1905   1.934       .  S
C857        C858   1.415   1_455  A
C857        C862   1.415       .  A
C857       Br864   1.937       .  S
C858        C859   1.426       .  A
C859        C860   1.413   1_655  A
C859       Br866   1.934       .  S
C860        C861   1.415       .  A
C860       Br865   1.940       .  S
C861        C862   1.425       .  A
C862       Br863   1.940       .  S
C867        C868   1.425       .  A
C867        C872   1.413       .  A
C867       Br874   1.940       .  S
C868        C869   1.416       .  A
C869        C870   1.410       .  A
C869       Br876   1.938       .  S
C870        C871   1.420       .  A
C870       Br875   1.939       .  S
C871        C872   1.413       .  A
C872       Br873   1.937       .  S
C877        C878   1.421       .  A
C877        C882   1.420       .  A
C877       Br884   1.931       .  S
C878        C879   1.417       .  A
C879        C880   1.408       .  A
C879       Br886   1.942       .  S
C880        C881   1.419       .  A
C880       Br885   1.942       .  S
C881        C882   1.413       .  A
C882       Br883   1.930       .  S
C887        C888   1.421       .  A
C887        C892   1.411       .  A
C887       Br894   1.937       .  S
C888        C889   1.412       .  A
C889        C890   1.411       .  A
C889       Br896   1.936       .  S
C890        C891   1.421       .  A
C890       Br895   1.937       .  S
C891        C892   1.414       .  A
C892       Br893   1.937       .  S
C897        C898   1.410       .  A
C897        C902   1.410       .  A
C897       Br904   1.933       .  S
C898        C899   1.419       .  A
C899        C900   1.411       .  A
C899       Br906   1.934       .  S
C900        C901   1.409       .  A
C900       Br905   1.932       .  S
C901        C902   1.418       .  A
C902       Br903   1.933       .  S
C907        C908   1.419       .  A
C907        C912   1.404       .  A
C907       Br914   1.936       .  S
C908        C909   1.408       .  A
C909        C910   1.401       .  A
C909       Br916   1.934       .  S
C910        C911   1.411       .  A
C910       Br915   1.931       .  S
C911        C912   1.405       .  A
C912       Br913   1.934       .  S
C917        C918   1.418       .  A
C917        C922   1.411   1_554  A
C917       Br924   1.935       .  S
C918        C919   1.414       .  A
C919       C1976   1.410   1_554  A
C919       Br926   1.934       .  S
C920        C921   1.417       .  A
C920       C1975   1.410       .  A
C920       Br925   1.935       .  S
C921       C1978   1.414       .  A
C922       C1977   1.414       .  A
C922       Br923   1.935       .  S
C927        C928   1.410       .  A
C927        C932   1.417       .  A
C927       Br934   1.930       .  S
C928        C929   1.418       .  A
C929        C930   1.405       .  A
C929       Br936   1.935       .  S
C930        C931   1.410       .  A
C930       Br935   1.937       .  S
C931        C932   1.420       .  A
C932       Br933   1.931       .  S
C937        C938   1.422       .  A
C937        C942   1.412       .  A
C937       Br944   1.939       .  S
C938       C1995   1.415       .  A
C939        C940   1.414       .  A
C939       C1994   1.415   1_554  A
C939       Br946   1.937       .  S
C940        C941   1.425       .  A
C940       Br945   1.940       .  S
C941       C1998   1.416   1_554  A
C942       C1997   1.416       .  A
C942       Br943   1.937       .  S
C947        C948   1.407       .  A
C947        C952   1.407       .  A
C947       Br954   1.930       .  S
C948        C949   1.405       .  A
C949        C950   1.397       .  A
C949       Br956   1.935       .  S
C950        C951   1.415       .  A
C950       Br955   1.939       .  S
C951        C952   1.413       .  A
C952       Br953   1.930       .  S
C957        C958   1.414       .  A
C957        C962   1.414       .  A
C957       Br964   1.928       .  S
C958        C959   1.414       .  A
C959        C960   1.403       .  A
C959       Br966   1.937       .  S
C960        C961   1.407       .  A
C960       Br965   1.932       .  S
C961        C962   1.408       .  A
C962       Br963   1.927       .  S
C967        C968   1.417       .  A
C967        C972   1.411       .  A
C967       Br974   1.936       .  S
C968        C969   1.412       .  A
C969        C970   1.411       .  A
C969       Br976   1.933       .  S
C970        C971   1.418       .  A
C970       Br975   1.936       .  S
C971        C972   1.413       .  A
C972       Br973   1.934       .  S
C977        C978   1.415       .  A
C977        C982   1.415       .  A
C977       Br984   1.929       .  S
C978        C979   1.404       .  A
C979        C980   1.407       .  A
C979      Br2042   1.932   1_554  S
C980        C981   1.413       .  A
C980       Br985   1.919       .  S
C981        C982   1.408       .  A
C982       Br983   1.927       .  S
Br986      C2035   1.932       .  S
C987        C992   1.411   1_655  A
C987       C2044   1.413       .  A
C987       Br994   1.931       .  S
C988       C1078   1.482       .  S
C988        C989   1.411   1_655  A
C988       C2043   1.413       .  A
C989        C990   1.408       .  A
C989       Br996   1.927   1_455  S
C990        C991   1.407       .  A
C990       Br995   1.927       .  S
C991       C2048   1.409       .  A
C992       C2047   1.409   1_554  A
C992       Br993   1.930       .  S
C997        C998   1.412       .  A
C997       C1002   1.406       .  A
C997      Br1004   1.934       .  S
C998        C999   1.421       .  A
C999       C1000   1.401       .  A
C999      Br1006   1.937       .  S
C1000      C1001   1.402       .  A
C1000     Br1005   1.929       .  S
C1001      C1002   1.410       .  A
C1002     Br1003   1.921       .  S
C1007      C1008   1.420       .  A
C1007      C1012   1.416       .  A
C1007     Br1014   1.930       .  S
C1008      C1009   1.419       .  A
C1009      C1010   1.406       .  A
C1009     Br1016   1.938       .  S
C1010      C1011   1.406       .  A
C1010     Br1015   1.923       .  S
C1011      C1012   1.407       .  A
C1012     Br1013   1.928       .  S
C1017      C1018   1.417       .  A
C1017      C1022   1.411       .  A
C1017     Br1024   1.936       .  S
C1018      C1019   1.412       .  A
C1019      C1020   1.410       .  A
C1019     Br1026   1.934       .  S
C1020      C1021   1.418       .  A
C1020     Br1025   1.936       .  S
C1021      C1022   1.412       .  A
C1022     Br1023   1.933       .  S
C1027      C1028   1.399       .  A
C1027      C2088   1.402       .  A
C1027     Br1034   1.937       .  S
C1028      C1029   1.402       .  A
C1029      C2086   1.408       .  A
C1029     Br1036   1.932       .  S
C1030      C1031   1.423       .  A
C1030      C2085   1.408   1_554  A
C1030     Br1035   1.934       .  S
C1031      C1032   1.430       .  A
C1032      C2083   1.402   1_554  A
C1032     Br1033   1.944       .  S
C1037      C1038   1.413       .  A
C1037      C1042   1.412       .  A
C1037     Br1044   1.934       .  S
C1038      C1039   1.417       .  A
C1039      C1040   1.413       .  A
C1039     Br1046   1.934       .  S
C1040      C1041   1.414       .  A
C1040     Br1045   1.934       .  S
C1041      C1042   1.417       .  A
C1042     Br1043   1.934       .  S
C1047      C1048   1.404       .  A
C1047      C1052   1.406       .  A
C1047     Br1054   1.932       .  S
C1048      C1049   1.416       .  A
C1049      C1050   1.416       .  A
C1049     Br1056   1.929       .  S
C1050      C1051   1.409       .  A
C1050     Br2111   1.928       .  S
C1051      C1052   1.413       .  A
C1052     Br1053   1.917       .  S
Br1055     C2106   1.928   1_554  S
O1057      C1060   1.271       .  A
O1057     Cd1062   2.480       .  S
C1058      O1067   1.268       .  A
C1058      O1063   1.269       .  A
C1058      C2094   1.494       .  S
O1059      C1065   1.273       .  A
O1059     Cd1062   2.496       .  S
C1060      O1068   1.262       .  A
C1060      C2084   1.460       .  S
C1061      O1066   1.270       .  A
C1061      O1064   1.266       .  A
C1061      C2104   1.483       .  S
Cd1062     O1069   2.409       .  S
Cd1062     O1068   2.368       .  S
Cd1062     O1067   2.457       .  S
Cd1062     O1063   2.480       .  S
Cd1062     O1066   2.505       .  S
Cd1062     O1064   2.433       .  S
C1065      O1069   1.263       .  A
C1065      C2074   1.488       .  S
O1070      C1073   1.272       .  A
O1070     Cd1075   2.467       .  S
C1071      O1080   1.267       .  A
C1071      O1076   1.268       .  A
C1071      C2064   1.496       .  S
O1072     Cd1075   2.506   1_554  S
C1073      O1081   1.260       .  A
C1073      C2054   1.480       .  S
C1074      O1079   1.273       .  A
C1074      O1077   1.265       .  A
C1074      C2107   1.488       .  S
Cd1075     O1081   2.381       .  S
Cd1075     O1079   2.524       .  S
Cd1075     O1077   2.446       .  S
C1078      O1082   1.264       .  A
O1083      C1086   1.272       .  A
O1083     Cd1088   2.472       .  S
C1084      O1093   1.268       .  A
C1084      O1089   1.269       .  A
C1084      C2097   1.494       .  S
O1085      C1091   1.276       .  A
O1085     Cd1088   2.501       .  S
C1086      O1094   1.260       .  A
C1086      C2087   1.495       .  S
C1087      O1092   1.272       .  A
C1087      O1090   1.265       .  A
C1087      C2037   1.485       .  S
Cd1088     O1095   2.409       .  S
Cd1088     O1094   2.361       .  S
Cd1088     O1093   2.460       .  S
Cd1088     O1089   2.477       .  S
Cd1088     O1092   2.520       .  S
Cd1088     O1090   2.448       .  S
C1091      O1095   1.264       .  A
C1091      C2024   1.490       .  S
O1096      C1099   1.273       .  A
C1097      O1106   1.268       .  A
C1097      O1102   1.269       .  A
C1097      C2014   1.482       .  S
O1098      C1104   1.273       .  A
O1098     Cd1101   2.507   1_556  S
C1099      O1107   1.263       .  A
C1099      C2004   1.459       .  S
C1100      O1105   1.271       .  A
C1100      O1103   1.266       .  A
C1100      C2034   1.480       .  S
Cd1101     O1108   2.415       .  S
Cd1101     O1106   2.436   1_554  S
Cd1101     O1102   2.470   1_554  S
C1104      O1108   1.261   1_556  A
C1104      C1994   1.502       .  S
O1109      C1112   1.273       .  A
O1109     Cd1114   2.444       .  S
C1110      O1119   1.271       .  A
C1110      O1115   1.269       .  A
C1110      C1974   1.492       .  S
O1111      C1117   1.276       .  A
O1111     Cd1114   2.484       .  S
C1112      O1120   1.262       .  A
C1112      C1964   1.471       .  S
C1113      O1118   1.274       .  A
C1113      O1116   1.264       .  A
C1113      C1984   1.490       .  S
Cd1114     O1121   2.407       .  S
Cd1114     O1120   2.379       .  S
Cd1114     O1119   2.448       .  S
Cd1114     O1115   2.452       .  S
Cd1114     O1118   2.504       .  S
Cd1114     O1116   2.417       .  S
C1117      O1121   1.266       .  A
C1117      C1954   1.488       .  S
O1122      C1125   1.270       .  A
O1122     Cd1127   2.474       .  S
C1123      O1132   1.264       .  A
C1123      O1128   1.276       .  A
C1123      C2007   1.470       .  S
O1124      C1130   1.274       .  A
O1124     Cd1127   2.497       .  S
C1125      O1133   1.267       .  A
C1125      C2017   1.475       .  S
C1126      O1131   1.274       .  A
C1126      O1129   1.262       .  A
C1126      C1944   1.493       .  S
Cd1127     O1134   2.391       .  S
Cd1127     O1133   2.432       .  S
Cd1127     O1132   2.338       .  S
Cd1127     O1128   2.459       .  S
Cd1127     O1131   2.488       .  S
Cd1127     O1129   2.418       .  S
C1130      O1134   1.267       .  A
C1130      C1987   1.491       .  S
O1135      C1138   1.274       .  A
O1135     Cd1140   2.443       .  S
C1136      O1145   1.268       .  A
C1136      O1141   1.268       .  A
C1136      C1977   1.491       .  S
O1137      C1143   1.274       .  A
O1137     Cd1140   2.486       .  S
C1138      O1146   1.266       .  A
C1138      C1967   1.465       .  S
C1139      O1144   1.274       .  A
C1139      O1142   1.262       .  A
C1139      C1934   1.503       .  S
Cd1140     O1147   2.405       .  S
Cd1140     O1146   2.363       .  S
Cd1140     O1145   2.452       .  S
Cd1140     O1141   2.466       .  S
Cd1140     O1144   2.537       .  S
Cd1140     O1142   2.374       .  S
C1143      O1147   1.262       .  A
C1143      C1924   1.499       .  S
O1148      C1151   1.276       .  A
O1148     Cd1153   2.461       .  S
C1149      O1158   1.270       .  A
C1149      O1154   1.272       .  A
C1149      C2067   1.484       .  S
O1150      C1156   1.277       .  A
O1150     Cd1153   2.518       .  S
C1151      O1159   1.264       .  A
C1151      C2057   1.469       .  S
C1152      O1157   1.274       .  A
C1152      O1155   1.266       .  A
C1152      C1937   1.497       .  S
Cd1153     O1160   2.413       .  S
Cd1153     O1159   2.397       .  S
Cd1153     O1158   2.469       .  S
Cd1153     O1154   2.469       .  S
Cd1153     O1157   2.497       .  S
Cd1153     O1155   2.423       .  S
C1156      O1160   1.261       .  A
C1156      C1914   1.506       .  S
O1161      C1164   1.274       .  A
O1161     Cd1166   2.459       .  S
C1162      O1171   1.269       .  A
C1162      O1167   1.270       .  A
C1162      C1894   1.498       .  S
O1163      C1169   1.275       .  A
O1163     Cd1166   2.513       .  S
C1164      O1172   1.262       .  A
C1164      C1887   1.478       .  S
C1165      O1170   1.277       .  A
C1165      O1168   1.267       .  A
C1165      C1957   1.487       .  S
Cd1166     O1173   2.425       .  S
Cd1166     O1172   2.374       .  S
Cd1166     O1171   2.441       .  S
Cd1166     O1167   2.465       .  S
Cd1166     O1170   2.485       .  S
Cd1166     O1168   2.408       .  S
C1169      O1173   1.265       .  A
C1169      C1907   1.488       .  S
O1174      C1177   1.268       .  A
O1174     Cd1179   2.460       .  S
C1175      O1184   1.263       .  A
C1175      O1180   1.272       .  A
C1175      C1867   1.460       .  S
O1176      C1182   1.274       .  A
O1176     Cd1179   2.484       .  S
C1177      O1185   1.269       .  A
C1177      C1877   1.505       .  S
C1178      O1183   1.273       .  A
C1178      O1181   1.265       .  A
C1178      C1904   1.482       .  S
Cd1179     O1186   2.417       .  S
Cd1179     O1185   2.441       .  S
C1182      O1186   1.264       .  A
C1182      C1854   1.502       .  S
O1187      C1190   1.271       .  A
O1187     Cd1192   2.462       .  S
C1188      O1197   1.266       .  A
C1188      O1193   1.276       .  A
C1188      C1884   1.470       .  S
O1189      C1195   1.277       .  A
O1189     Cd1192   2.498       .  S
C1190      O1198   1.270       .  A
C1190      C1897   1.488       .  S
C1191      O1196   1.275       .  A
C1191      O1194   1.265       .  A
C1191      C1844   1.485       .  S
Cd1192     O1199   2.382       .  S
Cd1192     O1198   2.438       .  S
Cd1192     O1197   2.397       .  S
Cd1192     O1193   2.428       .  S
Cd1192     O1196   2.490       .  S
Cd1192     O1194   2.407       .  S
C1195      O1199   1.263       .  A
C1195      C1927   1.495       .  S
O1200      C1203   1.270       .  A
O1200     Cd1205   2.449       .  S
C1201      O1210   1.262       .  A
C1201      O1206   1.272       .  A
C1201      C1827   1.460       .  S
O1202      C1208   1.273       .  A
O1202     Cd1205   2.479       .  S
C1203      O1211   1.271       .  A
C1203      C1834   1.478       .  S
C1204      O1209   1.274       .  A
C1204      O1207   1.266       .  A
C1204      C1847   1.483       .  S
Cd1205     O1212   2.412       .  S
Cd1205     O1211   2.436       .  S
C1208      O1212   1.262       .  A
C1208      C1814   1.500       .  S
O1213      C1216   1.270       .  A
O1213     Cd1218   2.465       .  S
C1214      O1223   1.264       .  A
C1214      O1219   1.275       .  A
C1214      C1784   1.476       .  S
O1215      C1221   1.278       .  A
O1215     Cd1218   2.493       .  S
C1216      O1224   1.269       .  A
C1216      C1797   1.494       .  S
C1217      O1222   1.275       .  A
C1217      O1220   1.265       .  A
C1217      C1804   1.489       .  S
Cd1218     O1225   2.397       .  S
Cd1218     O1224   2.443       .  S
Cd1218     O1223   2.378       .  S
Cd1218     O1219   2.439       .  S
Cd1218     O1222   2.513       .  S
Cd1218     O1220   2.427       .  S
C1221      O1225   1.266       .  A
C1221      C2027   1.491       .  S
O1226      C1229   1.272   1_545  A
O1226     Cd1231   2.475   1_545  S
C1227      O1236   1.269       .  A
C1227      O1232   1.268   1_565  A
C1227      C1874   1.484   1_565  S
O1228      C1234   1.272       .  A
O1228     Cd1231   2.505       .  S
C1229      O1237   1.261       .  A
C1229      C1864   1.468   1_565  S
C1230      O1235   1.274       .  A
C1230      O1233   1.263   1_565  A
C1230      C1774   1.486   1_565  S
Cd1231     O1238   2.416       .  S
Cd1231     O1237   2.336       .  S
Cd1231     O1236   2.459       .  S
Cd1231     O1232   2.457   1_565  S
Cd1231     O1235   2.506       .  S
Cd1231     O1233   2.414   1_565  S
C1234      O1238   1.267       .  A
C1234      C1807   1.486       .  S
O1239      C1242   1.276   1_545  A
O1239     Cd1244   2.453   1_545  S
C1240      O1249   1.270       .  A
C1240      O1245   1.271   1_565  A
C1240      C1837   1.477   1_565  S
O1241      C1247   1.275       .  A
O1241     Cd1244   2.487       .  S
C1242      O1250   1.263       .  A
C1242      C1824   1.468       .  S
C1243      O1248   1.275       .  A
C1243      O1246   1.264   1_565  A
C1243      C1754   1.490   1_565  S
Cd1244     O1251   2.396       .  S
Cd1244     O1250   2.339       .  S
Cd1244     O1249   2.428       .  S
Cd1244     O1245   2.461   1_565  S
Cd1244     O1248   2.481       .  S
Cd1244     O1246   2.409   1_565  S
C1247      O1251   1.268       .  A
C1247      C1764   1.488       .  S
O1252      C1255   1.275       .  A
O1252     Cd1257   2.435       .  S
C1253      O1262   1.270       .  A
C1253      O1258   1.271       .  A
C1253      C1794   1.492       .  S
O1254      C1260   1.275       .  A
O1254     Cd1257   2.497       .  S
C1255      O1263   1.265       .  A
C1255      C1787   1.469       .  S
C1256      O1261   1.278       .  A
C1256      O1259   1.265       .  A
C1256      C2077   1.489       .  S
Cd1257     O1264   2.413       .  S
Cd1257     O1263   2.384       .  S
Cd1257     O1262   2.440       .  S
Cd1257     O1258   2.460       .  S
Cd1257     O1261   2.492       .  S
Cd1257     O1259   2.392       .  S
C1260      O1264   1.265       .  A
C1260      C1767   1.489       .  S
O1265      C1268   1.273   1_545  A
O1265     Cd1270   2.460   1_545  S
C1266      O1275   1.270       .  A
C1266      O1271   1.270   1_565  A
C1266      C1734   1.480   1_565  S
O1267     Cd1270   2.479       .  S
C1268      O1276   1.263       .  A
C1268      C1727   1.461   1_565  S
C1269      O1274   1.274       .  A
C1269      O1272   1.266       .  A
C1269      C1747   1.488       .  S
Cd1270     O1276   2.351       .  S
Cd1270     O1274   2.499       .  S
Cd1270     O1272   2.386       .  S
C1273      O1277   1.261   1_565  A
O1278      C1281   1.270       .  A
O1278     Cd1283   2.465       .  S
C1279      O1288   1.264       .  A
C1279      O1284   1.274       .  A
C1279      C1707   1.473       .  S
O1280      C1286   1.273       .  A
O1280     Cd1283   2.500       .  S
C1281      O1289   1.269       .  A
C1281      C1714   1.492       .  S
C1282      O1287   1.276       .  A
C1282      O1285   1.265       .  A
C1282      C1694   1.490       .  S
Cd1283     O1290   2.418       .  S
Cd1283     O1289   2.432       .  S
Cd1283     O1288   2.376       .  S
Cd1283     O1284   2.448       .  S
Cd1283     O1287   2.486       .  S
Cd1283     O1285   2.398       .  S
C1286      O1290   1.264       .  A
C1286      C1744   1.488       .  S
O1291      C1294   1.270       .  A
O1291     Cd1296   2.458       .  S
C1292      O1301   1.261       .  A
C1292      O1297   1.274       .  A
C1292      C1724   1.469       .  S
O1293      C1299   1.274       .  A
O1293     Cd1296   2.492       .  S
C1294      O1302   1.270       .  A
C1294      C1737   1.476       .  S
C1295      O1300   1.275       .  A
C1295      O1298   1.264       .  A
C1295      C1757   1.490       .  S
Cd1296     O1303   2.400       .  S
Cd1296     O1302   2.438       .  S
Cd1296     O1301   2.339       .  S
Cd1296     O1297   2.463       .  S
Cd1296     O1300   2.486       .  S
Cd1296     O1298   2.409       .  S
C1299      O1303   1.268       .  A
C1299      C1687   1.483       .  S
O1304      C1307   1.273       .  A
O1304     Cd1309   2.459       .  S
C1305      O1314   1.271       .  A
C1305      O1310   1.270       .  A
C1305      C1674   1.498       .  S
O1306      C1312   1.275       .  A
O1306     Cd1309   2.485       .  S
C1307      O1315   1.261       .  A
C1307      C1664   1.477       .  S
C1308      O1313   1.275       .  A
C1308      O1311   1.265       .  A
C1308      C1684   1.489       .  S
Cd1309     O1316   2.404       .  S
Cd1309     O1315   2.390       .  S
Cd1309     O1314   2.448       .  S
Cd1309     O1310   2.462       .  S
Cd1309     O1313   2.510       .  S
Cd1309     O1311   2.421       .  S
C1312      O1316   1.264       .  A
C1312      C1654   1.500       .  S
O1317      C1320   1.272       .  A
O1317     Cd1322   2.464       .  S
C1318      O1327   1.271       .  A
C1318      O1323   1.269       .  A
C1318      C1677   1.493       .  S
O1319      C1325   1.273       .  A
O1319     Cd1322   2.489       .  S
C1320      O1328   1.263       .  A
C1320      C1667   1.467       .  S
C1321      O1326   1.275       .  A
C1321      O1324   1.264       .  A
C1321      C1647   1.491       .  S
Cd1322     O1329   2.396       .  S
Cd1322     O1328   2.380       .  S
Cd1322     O1327   2.460       .  S
Cd1322     O1323   2.457       .  S
Cd1322     O1326   2.524       .  S
Cd1322     O1324   2.371       .  S
C1325      O1329   1.261       .  A
C1325      C1634   1.502       .  S
O1330      C1333   1.271       .  A
O1330     Cd1335   2.467       .  S
C1331      O1340   1.263       .  A
C1331      O1336   1.274       .  A
C1331      C1617   1.471       .  S
O1332      C1338   1.272       .  A
O1332     Cd1335   2.489       .  S
C1333      O1341   1.269       .  A
C1333      C1627   1.481       .  S
C1334      O1339   1.276       .  A
C1334      O1337   1.264       .  A
C1334      C1777   1.486       .  S
Cd1335     O1342   2.425       .  S
Cd1335     O1341   2.435       .  S
Cd1335     O1340   2.378       .  S
Cd1335     O1336   2.455       .  S
Cd1335     O1339   2.485       .  S
Cd1335     O1337   2.408       .  S
C1338      O1342   1.266       .  A
C1338      C1644   1.490       .  S
O1343      C1346   1.273   1_545  A
O1343     Cd1348   2.473   1_545  S
C1344      O1353   1.271       .  A
C1344      O1349   1.270   1_565  A
C1344      C1624   1.478       .  S
O1345      C1351   1.274       .  A
C1346      O1354   1.261       .  A
C1346      C1614   1.471   1_565  S
C1347      O1352   1.272       .  A
C1347      O1350   1.265       .  A
C1347      C1604   1.489       .  S
Cd1348     O1354   2.373       .  S
Cd1348     O1352   2.487       .  S
Cd1348     O1350   2.422       .  S
C1351      O1355   1.265   1_565  A
O1356      C1359   1.272       .  A
O1356     Cd1361   2.446       .  S
C1357      O1366   1.268       .  A
C1357      O1362   1.268       .  A
C1357      C1717   1.488       .  S
O1358      C1364   1.274       .  A
O1358     Cd1361   2.481       .  S
C1359      O1367   1.265       .  A
C1359      C1704   1.466       .  S
C1360      O1365   1.273       .  A
C1360      O1363   1.263       .  A
C1360      C1607   1.492       .  S
Cd1361     O1368   2.410       .  S
Cd1361     O1367   2.377       .  S
Cd1361     O1366   2.456       .  S
Cd1361     O1362   2.459       .  S
Cd1361     O1365   2.524       .  S
Cd1361     O1363   2.372       .  S
C1364      O1368   1.264       .  A
C1364      C1594   1.477       .  S
O1369      C1372   1.276       .  A
O1369     Cd1374   2.478       .  S
C1370      O1379   1.268       .  A
C1370      O1375   1.271       .  A
C1370      C1574   1.482       .  S
O1371      C1377   1.272       .  A
O1371     Cd1374   2.495       .  S
C1372      O1380   1.263       .  A
C1372      C1567   1.473       .  S
C1373      O1378   1.274       .  A
C1373      O1376   1.263       .  A
C1373      C1947   1.494       .  S
Cd1374     O1381   2.441       .  S
Cd1374     O1380   2.324       .  S
Cd1374     O1379   2.454       .  S
Cd1374     O1375   2.486       .  S
Cd1374     O1378   2.486       .  S
Cd1374     O1376   2.419       .  S
C1377      O1381   1.267       .  A
C1377      C1584   1.482       .  S
O1382      C1385   1.274       .  A
O1382     Cd1387   2.455       .  S
C1383      O1392   1.268       .  A
C1383      O1388   1.270       .  A
C1383      C1557   1.495       .  S
O1384      C1390   1.274       .  A
O1384     Cd1387   2.514       .  S
C1385      O1393   1.261       .  A
C1385      C1544   1.487       .  S
C1386      O1391   1.277       .  A
C1386      O1389   1.266       .  A
C1386      C1597   1.480       .  S
Cd1387     O1394   2.440       .  S
Cd1387     O1393   2.365       .  S
Cd1387     O1392   2.447       .  S
Cd1387     O1388   2.470       .  S
Cd1387     O1391   2.491       .  S
Cd1387     O1389   2.406       .  S
C1390      O1394   1.265       .  A
C1390      C1587   1.485       .  S
O1395      C1398   1.272       .  A
O1395     Cd1400   2.477       .  S
C1396      O1405   1.267       .  A
C1396      O1401   1.269       .  A
C1396      C1524   1.490       .  S
O1397      C1403   1.269       .  A
O1397     Cd1400   2.509       .  S
C1398      O1406   1.264       .  A
C1398      C1517   1.466       .  S
C1399      O1404   1.270       .  A
C1399      O1402   1.262       .  A
C1399      C1637   1.492       .  S
Cd1400     O1407   2.429       .  S
Cd1400     O1406   2.377       .  S
Cd1400     O1405   2.458       .  S
Cd1400     O1401   2.483       .  S
Cd1400     O1404   2.485       .  S
Cd1400     O1402   2.429       .  S
C1403      O1407   1.265       .  A
C1403      C1537   1.489       .  S
O1408      C1411   1.271       .  A
C1409      O1418   1.271       .  A
C1409      O1414   1.269       .  A
C1409      C1577   1.488       .  S
O1410      C1416   1.272       .  A
C1411      O1419   1.261       .  A
C1411      C1564   1.471       .  S
C1412      O1417   1.270       .  A
C1412      O1415   1.260       .  A
C1412      C1997   1.503       .  S
Cd1413     O1418   2.455       .  S
Cd1413     O1414   2.473       .  S
Cd1413     O1417   2.501       .  S
Cd1413     O1415   2.434       .  S
C1416      O1420   1.266       .  A
C1416      C1534   1.487       .  S
O1421      C1424   1.274       .  A
O1421     Cd1426   2.444       .  S
C1422      O1431   1.268       .  A
C1422      O1427   1.269       .  A
C1422      C1554   1.490       .  S
O1423      C1429   1.274       .  A
O1423     Cd1426   2.516       .  S
C1424      O1432   1.265       .  A
C1424      C1547   1.459       .  S
C1425      O1430   1.275       .  A
C1425      O1428   1.262       .  A
C1425      C1697   1.490       .  S
Cd1426     O1433   2.379       .  S
Cd1426     O1432   2.369       .  S
Cd1426     O1431   2.448       .  S
Cd1426     O1427   2.472       .  S
Cd1426     O1430   2.497       .  S
Cd1426     O1428   2.399       .  S
C1429      O1433   1.264       .  A
C1429      C1504   1.492       .  S
O1434      C1437   1.276       .  A
O1434     Cd1439   2.447       .  S
C1435      O1444   1.267       .  A
C1435      O1440   1.271       .  A
C1435      C1497   1.497       .  S
O1436      C1442   1.275       .  A
O1436     Cd1439   2.492       .  S
C1437      O1445   1.265       .  A
C1437      C1484   1.472       .  S
C1438      O1443   1.275       .  A
C1438      O1441   1.262       .  A
C1438      C1917   1.504       .  S
Cd1439     O1446   2.415       .  S
Cd1439     O1445   2.376       .  S
Cd1439     O1444   2.432       .  S
Cd1439     O1440   2.466       .  S
Cd1439     O1443   2.491       .  S
Cd1439     O1441   2.411       .  S
C1442      O1446   1.266       .  A
C1442      C1507   1.490       .  S
O1447      C1450   1.268       .  A
O1447     Cd1452   2.468       .  S
C1448      O1457   1.264       .  A
C1448      O1453   1.272       .  A
C1448      C1514   1.475       .  S
O1449      C1455   1.273       .  A
O1449     Cd1452   2.480       .  S
C1450      O1458   1.269       .  A
C1450      C1527   1.499       .  S
C1451      O1456   1.275       .  A
C1451      O1454   1.260       .  A
C1451      C1474   1.503       .  S
Cd1452     O1459   2.421       .  S
Cd1452     O1458   2.460       .  S
Cd1452     O1457   2.388       .  S
Cd1452     O1453   2.462       .  S
Cd1452     O1456   2.548       .  S
Cd1452     O1454   2.368       .  S
C1455      O1459   1.264       .  A
C1455      C1657   1.499       .  S
O1460      C1463   1.269       .  A
O1460     Cd1465   2.450       .  S
C1461      O1470   1.261       .  A
C1461      O1466   1.270       .  A
C1461      C1487   1.467       .  S
O1462      C1468   1.274       .  A
O1462     Cd1465   2.507       .  S
C1463      O1471   1.271       .  A
C1463      C1494   1.480       .  S
C1464      O1469   1.269       .  A
C1464      O1467   1.265       .  A
C1464      C1477   1.493       .  S
Cd1465     O1472   2.414       .  S
Cd1465     O1471   2.462       .  S
C1468      O1472   1.263       .  A
C1468      C2047   1.478       .  S
C1473      C1474   1.420       .  A
C1473      C1478   1.419       .  A
C1473     Br1480   1.929       .  S
C1474      C1475   1.419       .  A
C1475      C1476   1.406       .  A
C1475     Br1482   1.942       .  S
C1476      C1477   1.416       .  A
C1476     Br1481   1.940       .  S
C1477      C1478   1.413       .  A
C1478     Br1479   1.930       .  S
C1483      C1484   1.408       .  A
C1483      C1488   1.403       .  A
C1483     Br1490   1.934       .  S
C1484      C1485   1.418       .  A
C1485      C1486   1.404       .  A
C1485     Br1492   1.933       .  S
C1486      C1487   1.405       .  A
C1486     Br1491   1.934       .  S
C1487      C1488   1.413       .  A
C1488     Br1489   1.933       .  S
C1493      C1494   1.407       .  A
C1493      C1498   1.408       .  A
C1493     Br1500   1.934       .  S
C1494      C1495   1.406       .  A
C1495      C1496   1.412       .  A
C1495     Br1502   1.929       .  S
C1496      C1497   1.420       .  A
C1496     Br1501   1.932       .  S
C1497      C1498   1.423       .  A
C1498     Br1499   1.937       .  S
C1503      C1504   1.419       .  A
C1503      C1508   1.417       .  A
C1503     Br1510   1.930       .  S
C1504      C1505   1.411       .  A
C1505      C1506   1.404       .  A
C1505     Br1512   1.938       .  S
C1506      C1507   1.417       .  A
C1506     Br1511   1.937       .  S
C1507      C1508   1.411       .  A
C1508     Br1509   1.930       .  S
C1513      C1514   1.418       .  A
C1513     Br1520   1.935       .  S
C1514      C1515   1.409       .  A
C1515     Br1522   1.931       .  S
C1516      C1517   1.409       .  A
C1516     Br1521   1.927       .  S
C1517      C1518   1.404       .  A
C1518     Br1519   1.932       .  S
C1523      C1524   1.411       .  A
C1523      C1528   1.413       .  A
C1523     Br1530   1.934       .  S
C1524      C1525   1.414       .  A
C1525      C1526   1.412       .  A
C1525     Br1532   1.934       .  S
C1526      C1527   1.417       .  A
C1526     Br1531   1.934       .  S
C1527      C1528   1.421       .  A
C1528     Br1529   1.935       .  S
C1533      C1534   1.408       .  A
C1533      C1538   1.417       .  A
C1534      C1535   1.412       .  A
C1535      C1536   1.406       .  A
C1535     Br1542   1.926       .  S
C1536      C1537   1.409       .  A
C1536     Br1541   1.933       .  S
C1537      C1538   1.419       .  A
C1538     Br1539   1.930       .  S
C1543      C1544   1.417       .  A
C1543      C1548   1.405       .  A
C1543     Br1550   1.935       .  S
C1544      C1545   1.426       .  A
C1545      C1546   1.401       .  A
C1545     Br1552   1.941       .  S
C1546      C1547   1.400       .  A
C1546     Br1551   1.936       .  S
C1547      C1548   1.406       .  A
C1548     Br1549   1.933       .  S
C1553      C1554   1.412       .  A
C1553     Br1560   1.934       .  S
C1554      C1555   1.415       .  A
C1555      C1556   1.411       .  A
C1555     Br1562   1.934       .  S
C1557      C1558   1.419       .  A
C1558     Br1559   1.934       .  S
C1563      C1564   1.412       .  A
C1563      C1568   1.409       .  A
C1563     Br1570   1.931       .  S
C1564      C1565   1.409       .  A
C1565      C1566   1.398       .  A
C1565     Br1572   1.937       .  S
C1566      C1567   1.413       .  A
C1566     Br1571   1.939       .  S
C1567      C1568   1.413       .  A
C1568     Br1569   1.931       .  S
C1573      C1574   1.409       .  A
C1573      C1578   1.406       .  A
C1573     Br1580   1.931       .  S
C1574      C1575   1.409       .  A
C1575      C1576   1.417       .  A
C1575     Br1582   1.927       .  S
C1576      C1577   1.416       .  A
C1576     Br1581   1.928       .  S
C1577      C1578   1.414       .  A
C1578     Br1579   1.936       .  S
C1583      C1584   1.417       .  A
C1583      C1588   1.414       .  A
C1583     Br1590   1.924       .  S
C1584      C1585   1.402       .  A
C1585      C1586   1.408       .  A
C1585     Br1592   1.931       .  S
C1586      C1587   1.413       .  A
C1586     Br1591   1.914       .  S
C1587      C1588   1.406       .  A
C1588     Br1589   1.929       .  S
C1593      C1594   1.407       .  A
C1593      C1598   1.407       .  A
C1593     Br1600   1.933       .  S
C1594      C1595   1.414       .  A
C1595      C1596   1.410       .  A
C1595     Br1602   1.932       .  S
C1596      C1597   1.408       .  A
C1596     Br1601   1.930       .  S
C1597      C1598   1.415       .  A
C1598     Br1599   1.930       .  S
C1603      C1604   1.412       .  A
C1603      C1608   1.417       .  A
C1603     Br1610   1.930       .  S
C1604      C1605   1.417       .  A
C1605      C1606   1.404       .  A
C1605     Br1612   1.938       .  S
C1606      C1607   1.412       .  A
C1606     Br1611   1.939       .  S
C1607      C1608   1.418       .  A
C1608     Br1609   1.930       .  S
C1613      C1614   1.406       .  A
C1613      C1618   1.404       .  A
C1613     Br1620   1.933       .  S
C1614      C1615   1.416   1_545  A
C1615      C1616   1.404       .  A
C1615     Br1622   1.935       .  S
C1616      C1617   1.407   1_565  A
C1616     Br1621   1.935       .  S
C1617      C1618   1.416       .  A
C1618     Br1619   1.933       .  S
C1623      C1624   1.410   1_545  A
C1623      C1628   1.413       .  A
C1623     Br1630   1.928   1_545  S
C1624      C1625   1.410   1_565  A
C1625      C1626   1.405       .  A
C1625     Br1632   1.934       .  S
C1626      C1627   1.413       .  A
C1626     Br1631   1.934       .  S
C1627      C1628   1.412       .  A
C1628     Br1629   1.928       .  S
C1633      C1634   1.428       .  A
C1633      C1638   1.410       .  A
C1633     Br1640   1.940       .  S
C1634      C1635   1.419       .  A
C1635      C1636   1.411       .  A
C1635     Br1642   1.937       .  S
C1636      C1637   1.417       .  A
C1636     Br1641   1.938       .  S
C1637      C1638   1.411       .  A
C1638     Br1639   1.938       .  S
C1643      C1644   1.417       .  A
C1643      C1648   1.404       .  A
C1643     Br1650   1.938       .  S
C1644      C1645   1.412       .  A
C1645      C1646   1.417       .  A
C1645     Br1652   1.929       .  S
C1646      C1647   1.418       .  A
C1646     Br1651   1.929       .  S
C1647      C1648   1.411       .  A
C1648     Br1649   1.938       .  S
C1653      C1654   1.415       .  A
C1653      C1658   1.413       .  A
C1653     Br1660   1.937       .  S
C1654      C1655   1.424       .  A
C1655      C1656   1.412       .  A
C1655     Br1662   1.941       .  S
C1656      C1657   1.415       .  A
C1656     Br1661   1.938       .  S
C1657      C1658   1.423       .  A
C1658     Br1659   1.939       .  S
C1663      C1664   1.410       .  A
C1663      C1668   1.404       .  A
C1663     Br1670   1.933       .  S
C1664      C1665   1.421       .  A
C1665      C1666   1.405       .  A
C1665     Br1672   1.938       .  S
C1666      C1667   1.404       .  A
C1666     Br1671   1.932       .  S
C1667      C1668   1.411       .  A
C1668     Br1669   1.933       .  S
C1673      C1674   1.421       .  A
C1673      C1678   1.413       .  A
C1673     Br1680   1.935       .  S
C1675      C1676   1.411   1_554  A
C1675     Br1682   1.935       .  S
C1676      C1677   1.416       .  A
C1676     Br1681   1.936       .  S
C1678     Br1679   1.934       .  S
C1683      C1684   1.410       .  A
C1683      C1688   1.416       .  A
C1683     Br1690   1.929       .  S
C1684      C1685   1.417       .  A
C1685      C1686   1.405       .  A
C1685     Br1692   1.929       .  S
C1686      C1687   1.405       .  A
C1686     Br1691   1.934       .  S
C1687      C1688   1.417       .  A
C1688     Br1689   1.930       .  S
C1693      C1694   1.419       .  A
C1693      C1698   1.410       .  A
C1693     Br1700   1.937       .  S
C1694      C1695   1.412       .  A
C1695      C1696   1.410       .  A
C1695     Br1702   1.935       .  S
C1696      C1697   1.419       .  A
C1696     Br1701   1.937       .  S
C1697      C1698   1.412       .  A
C1698     Br1699   1.934       .  S
C1703      C1704   1.405       .  A
C1703     Br1710   1.934       .  S
C1704      C1705   1.411       .  A
C1705     Br1712   1.932       .  S
C1706      C1707   1.410       .  A
C1706     Br1711   1.934       .  S
C1707      C1708   1.419       .  A
C1708     Br1709   1.936       .  S
C1713      C1714   1.415       .  A
C1713      C1718   1.409       .  A
C1713     Br1720   1.935       .  S
C1714      C1715   1.418       .  A
C1715      C1716   1.411       .  A
C1715     Br1722   1.934       .  S
C1716      C1717   1.412       .  A
C1716     Br1721   1.934       .  S
C1717      C1718   1.415       .  A
C1718     Br1719   1.935       .  S
C1723      C1724   1.413       .  A
C1723      C1728   1.406       .  A
C1723     Br1730   1.931       .  S
C1724      C1725   1.415       .  A
C1725      C1726   1.398       .  A
C1725     Br1732   1.939       .  S
C1726      C1727   1.406       .  A
C1726     Br1731   1.934       .  S
C1727      C1728   1.407       .  A
C1728     Br1729   1.931   1_545  S
C1733      C1734   1.413       .  A
C1733      C1738   1.404       .  A
C1733     Br1740   1.936   1_545  S
C1734      C1735   1.413       .  A
C1735      C1736   1.414       .  A
C1735     Br1742   1.928       .  S
C1736      C1737   1.409       .  A
C1736     Br1741   1.927       .  S
C1737      C1738   1.409       .  A
C1738     Br1739   1.935       .  S
C1743      C1744   1.417       .  A
C1743      C1748   1.404       .  A
C1743     Br1750   1.935       .  S
C1744      C1745   1.410       .  A
C1745      C1746   1.416       .  A
C1745     Br1752   1.929       .  S
C1746      C1747   1.418       .  A
C1746     Br1751   1.930       .  S
C1747      C1748   1.410       .  A
C1748     Br1749   1.937       .  S
C1753      C1754   1.412   1_565  A
C1753      C1758   1.410       .  A
C1753     Br1760   1.935       .  S
C1754      C1755   1.420       .  A
C1755      C1756   1.410       .  A
C1755     Br1762   1.937       .  S
C1756      C1757   1.411       .  A
C1756     Br1761   1.935       .  S
C1757      C1758   1.419   1_545  A
C1758     Br1759   1.936       .  S
C1763      C1764   1.409       .  A
C1763      C1768   1.406       .  A
C1763     Br1770   1.935       .  S
C1764      C1765   1.418       .  A
C1765      C1766   1.416       .  A
C1765     Br1772   1.931       .  S
C1766      C1767   1.410       .  A
C1766     Br1771   1.930       .  S
C1767      C1768   1.418       .  A
C1768     Br1769   1.937       .  S
C1773      C1774   1.415       .  A
C1773      C1778   1.409   1_655  A
C1773     Br1780   1.931       .  S
C1774      C1775   1.411   1_645  A
C1775      C1776   1.411       .  A
C1775     Br1782   1.932   1_455  S
C1776      C1777   1.418   1_565  A
C1776     Br1781   1.934       .  S
C1777      C1778   1.411       .  A
C1778     Br1779   1.934       .  S
C1783      C1784   1.411       .  A
C1783      C1788   1.404       .  A
C1783     Br1790   1.936       .  S
C1784      C1785   1.419       .  A
C1785      C1786   1.403       .  A
C1785     Br1792   1.939       .  S
C1786      C1787   1.407       .  A
C1786     Br1791   1.936       .  S
C1787      C1788   1.414       .  A
C1788     Br1789   1.935       .  S
C1793      C1794   1.416       .  A
C1793      C1798   1.411   1_556  A
C1793     Br1800   1.935       .  S
C1794      C1795   1.414       .  A
C1795     Br1802   1.935       .  S
C1796      C1797   1.418       .  A
C1796     Br1801   1.935       .  S
C1798     Br1799   1.935       .  S
C1803      C1804   1.410       .  A
C1803      C1808   1.417       .  A
C1803     Br1810   1.929       .  S
C1804      C1805   1.416       .  A
C1805      C1806   1.405       .  A
C1805     Br1812   1.927       .  S
C1806      C1807   1.406       .  A
C1806     Br1811   1.934       .  S
C1807      C1808   1.418       .  A
C1808     Br1809   1.930       .  S
C1813      C1814   1.424   1_565  A
C1814      C1815   1.414       .  A
C1815      C1816   1.412       .  A
C1815     Br1822   1.939       .  S
C1816      C1817   1.426       .  A
C1816     Br1821   1.942       .  S
C1818     Br1819   1.939       .  S
C1823      C1824   1.412   1_545  A
C1823      C1828   1.406       .  A
C1823     Br1830   1.931       .  S
C1824      C1825   1.415       .  A
C1825      C1826   1.398   1_565  A
C1825     Br1832   1.938       .  S
C1826      C1827   1.406       .  A
C1826     Br1831   1.934       .  S
C1827      C1828   1.408       .  A
C1828     Br1829   1.931       .  S
C1833      C1834   1.411       .  A
C1833      C1838   1.403       .  A
C1833     Br1840   1.936       .  S
C1834      C1835   1.412       .  A
C1835      C1836   1.413       .  A
C1835     Br1842   1.928       .  S
C1836      C1837   1.409       .  A
C1836     Br1841   1.927   1_545  S
C1837      C1838   1.410       .  A
C1838     Br1839   1.934       .  S
C1843      C1844   1.410       .  A
C1843      C1848   1.415       .  A
C1843     Br1850   1.929       .  S
C1844      C1845   1.417       .  A
C1845      C1846   1.404       .  A
C1845     Br1852   1.935       .  S
C1846      C1847   1.407       .  A
C1847      C1848   1.416       .  A
C1848     Br1849   1.930       .  S
C1853      C1854   1.417   1_455  A
C1853      C1858   1.412       .  A
C1853     Br1860   1.937   1_455  S
C1855      C1856   1.411   1_655  A
C1855     Br1862   1.938       .  S
C1856     Br1861   1.937       .  S
C1857      C1858   1.420   1_565  A
C1858     Br1859   1.939       .  S
C1863      C1864   1.412       .  A
C1863      C1868   1.408       .  A
C1863     Br1870   1.930       .  S
C1864      C1865   1.414       .  A
C1865      C1866   1.396       .  A
C1865     Br1872   1.939   1_545  S
C1866      C1867   1.404       .  A
C1866     Br1871   1.931   1_545  S
C1867      C1868   1.409       .  A
C1868     Br1869   1.931       .  S
C1873      C1874   1.407   1_565  A
C1873      C1878   1.413   1_565  A
C1873     Br1880   1.933       .  S
C1874      C1875   1.410       .  A
C1875      C1876   1.410       .  A
C1875     Br1882   1.934       .  S
C1876      C1877   1.423       .  A
C1876     Br1881   1.937       .  S
C1877      C1878   1.425       .  A
C1878     Br1879   1.935   1_545  S
C1883      C1884   1.406       .  A
C1883     Br1890   1.937       .  S
C1884      C1885   1.413       .  A
C1885     Br1892   1.934       .  S
C1886      C1887   1.412       .  A
C1886     Br1891   1.935       .  S
C1887      C1888   1.421       .  A
C1888     Br1889   1.939       .  S
C1893      C1894   1.418       .  A
C1893      C1898   1.411       .  A
C1893     Br1900   1.935       .  S
C1894      C1895   1.421       .  A
C1895      C1896   1.412       .  A
C1895     Br1902   1.935       .  S
C1896      C1897   1.411       .  A
C1896     Br1901   1.935       .  S
C1897      C1898   1.413       .  A
C1898     Br1899   1.934       .  S
C1903      C1904   1.416       .  A
C1903      C1908   1.417       .  A
C1903     Br1910   1.930       .  S
C1904      C1905   1.405       .  A
C1905      C1906   1.404       .  A
C1906      C1907   1.415       .  A
C1906     Br1911   1.927       .  S
C1907      C1908   1.410       .  A
C1908     Br1909   1.928       .  S
C1913      C1914   1.415   1_455  A
C1913      C1918   1.415       .  A
C1913     Br1920   1.937       .  S
C1914      C1915   1.426       .  A
C1915      C1916   1.413   1_655  A
C1915     Br1922   1.934       .  S
C1916      C1917   1.415       .  A
C1916     Br1921   1.940       .  S
C1917      C1918   1.425       .  A
C1918     Br1919   1.940       .  S
C1923      C1924   1.425       .  A
C1923      C1928   1.413       .  A
C1923     Br1930   1.940       .  S
C1924      C1925   1.416       .  A
C1925      C1926   1.410       .  A
C1925     Br1932   1.938       .  S
C1926      C1927   1.420       .  A
C1926     Br1931   1.939       .  S
C1927      C1928   1.413       .  A
C1928     Br1929   1.937       .  S
C1933      C1934   1.421       .  A
C1933      C1938   1.420       .  A
C1933     Br1940   1.931       .  S
C1934      C1935   1.417       .  A
C1935      C1936   1.408       .  A
C1935     Br1942   1.942       .  S
C1936      C1937   1.419       .  A
C1936     Br1941   1.942       .  S
C1937      C1938   1.413       .  A
C1938     Br1939   1.930       .  S
C1943      C1944   1.421       .  A
C1943      C1948   1.411       .  A
C1943     Br1950   1.937       .  S
C1944      C1945   1.412       .  A
C1945      C1946   1.411       .  A
C1945     Br1952   1.936       .  S
C1946      C1947   1.421       .  A
C1946     Br1951   1.937       .  S
C1947      C1948   1.414       .  A
C1948     Br1949   1.937       .  S
C1953      C1954   1.410       .  A
C1953      C1958   1.410       .  A
C1953     Br1960   1.933       .  S
C1954      C1955   1.419       .  A
C1955      C1956   1.411       .  A
C1955     Br1962   1.934       .  S
C1956      C1957   1.409       .  A
C1956     Br1961   1.932       .  S
C1957      C1958   1.418       .  A
C1958     Br1959   1.933       .  S
C1963      C1964   1.419       .  A
C1963      C1968   1.404       .  A
C1963     Br1970   1.936       .  S
C1964      C1965   1.408       .  A
C1965      C1966   1.401       .  A
C1965     Br1972   1.934       .  S
C1966      C1967   1.411       .  A
C1966     Br1971   1.931       .  S
C1967      C1968   1.405       .  A
C1968     Br1969   1.934       .  S
C1973      C1974   1.418       .  A
C1973      C1978   1.411       .  A
C1973     Br1980   1.935       .  S
C1974      C1975   1.414       .  A
C1975     Br1982   1.934       .  S
C1976      C1977   1.417       .  A
C1976     Br1981   1.935       .  S
C1978     Br1979   1.935       .  S
C1983      C1984   1.410       .  A
C1983      C1988   1.417       .  A
C1983     Br1990   1.930       .  S
C1984      C1985   1.418       .  A
C1985      C1986   1.405       .  A
C1985     Br1992   1.935       .  S
C1986      C1987   1.410       .  A
C1986     Br1991   1.937       .  S
C1987      C1988   1.420       .  A
C1988     Br1989   1.931       .  S
C1993      C1994   1.422       .  A
C1993      C1998   1.412       .  A
C1993     Br2000   1.939       .  S
C1995      C1996   1.414       .  A
C1995     Br2002   1.937       .  S
C1996      C1997   1.425       .  A
C1996     Br2001   1.940       .  S
C1998     Br1999   1.937   1_556  S
C2003      C2004   1.407       .  A
C2003      C2008   1.407       .  A
C2003     Br2010   1.930       .  S
C2004      C2005   1.405       .  A
C2005      C2006   1.397       .  A
C2005     Br2012   1.935       .  S
C2006      C2007   1.415       .  A
C2006     Br2011   1.939       .  S
C2007      C2008   1.413       .  A
C2008     Br2009   1.930       .  S
C2013      C2014   1.414       .  A
C2013      C2018   1.414       .  A
C2013     Br2020   1.928       .  S
C2014      C2015   1.414       .  A
C2015      C2016   1.403       .  A
C2015     Br2022   1.937       .  S
C2016      C2017   1.407       .  A
C2016     Br2021   1.932       .  S
C2017      C2018   1.408       .  A
C2018     Br2019   1.927       .  S
C2023      C2024   1.417       .  A
C2023      C2028   1.411       .  A
C2023     Br2030   1.936       .  S
C2024      C2025   1.412       .  A
C2025      C2026   1.411       .  A
C2025     Br2032   1.933       .  S
C2026      C2027   1.418       .  A
C2026     Br2031   1.936       .  S
C2027      C2028   1.413       .  A
C2028     Br2029   1.934       .  S
C2033      C2034   1.415       .  A
C2033      C2038   1.415       .  A
C2033     Br2040   1.929       .  S
C2034      C2035   1.404       .  A
C2035      C2036   1.407       .  A
C2036      C2037   1.413       .  A
C2036     Br2041   1.919       .  S
C2037      C2038   1.408       .  A
C2038     Br2039   1.927       .  S
C2043      C2048   1.411   1_655  A
C2043     Br2050   1.931       .  S
C2044      C2045   1.411   1_654  A
C2045      C2046   1.408       .  A
C2045     Br2052   1.927   1_455  S
C2046      C2047   1.407       .  A
C2046     Br2051   1.927       .  S
C2048     Br2049   1.930       .  S
C2053      C2054   1.412       .  A
C2053      C2058   1.406       .  A
C2053     Br2060   1.934       .  S
C2054      C2055   1.421       .  A
C2055      C2056   1.401       .  A
C2055     Br2062   1.937       .  S
C2056      C2057   1.402       .  A
C2056     Br2061   1.929       .  S
C2057      C2058   1.410       .  A
C2058     Br2059   1.921       .  S
C2063      C2064   1.420       .  A
C2063      C2068   1.416       .  A
C2063     Br2070   1.930       .  S
C2064      C2065   1.419       .  A
C2065      C2066   1.406       .  A
C2065     Br2072   1.938       .  S
C2066      C2067   1.406       .  A
C2066     Br2071   1.923       .  S
C2067      C2068   1.407       .  A
C2068     Br2069   1.928       .  S
C2073      C2074   1.417       .  A
C2073      C2078   1.411       .  A
C2073     Br2080   1.936       .  S
C2074      C2075   1.412       .  A
C2075      C2076   1.410       .  A
C2075     Br2082   1.934       .  S
C2076      C2077   1.418       .  A
C2076     Br2081   1.936       .  S
C2077      C2078   1.412       .  A
C2078     Br2079   1.933       .  S
C2083      C2084   1.399       .  A
C2083     Br2090   1.937       .  S
C2084      C2085   1.402       .  A
C2085     Br2092   1.932       .  S
C2086      C2087   1.423       .  A
C2086     Br2091   1.934       .  S
C2087      C2088   1.430       .  A
C2088     Br2089   1.944       .  S
C2093      C2094   1.413       .  A
C2093      C2098   1.412       .  A
C2093     Br2100   1.934       .  S
C2094      C2095   1.417       .  A
C2095      C2096   1.413       .  A
C2095     Br2102   1.934       .  S
C2096      C2097   1.414       .  A
C2096     Br2101   1.934       .  S
C2097      C2098   1.417       .  A
C2098     Br2099   1.934       .  S
C2103      C2104   1.404       .  A
C2103      C2108   1.406       .  A
C2103     Br2110   1.932       .  S
C2104      C2105   1.416       .  A
C2105      C2106   1.416       .  A
C2105     Br2112   1.929       .  S
C2106      C2107   1.409       .  A
C2107      C2108   1.413       .  A
C2108     Br2109   1.917       .  S
