geometry optimzed in LAMMPS
_audit_creation_date              2020-12-01 
_audit_creation_method            'lammps2cif' 
_symmetry_space_group_name_H-M    'P1' 
_symmetry_Int_Tables_number       1 
_symmetry_cell_setting            triclinic 
loop_ 
_symmetry_equiv_pos_as_xyz 
  x,y,z 
_cell_length_a                    81.42821793 
_cell_length_b                    81.21686885171839 
_cell_length_c                    47.8409277715824 
_cell_angle_alpha                 89.37181403520773 
_cell_angle_beta                  90.13355004075355 
_cell_angle_gamma                 123.70759217800192 
loop_ 
_atom_site_label 
_atom_site_type_symbol 
_atom_site_fract_x 
_atom_site_fract_y 
_atom_site_fract_z 
_atom_site_charge 
O1          O  0.22476506  0.33862910  0.32312024    -0.56600
C2          C  0.27288190  0.35312636  0.26485280     0.76000
O3          O  0.23291531  0.29251777  0.28934317    -0.57800
C4          C  0.20769091  0.32306698  0.32737938     0.76000
C5          C  0.21236520  0.32159126  0.23655137     0.78400
Cd6        Cd  0.23381265  0.32365633  0.28601960     1.37500
O7          O  0.26584394  0.35704398  0.28547716    -0.56600
O8          O  0.22126362  0.33670873  0.25191837    -0.55400
C9          C  0.24179042  0.29661381  0.31263807     0.78300
O10         O  0.21296407  0.30690836  0.24422838    -0.57800
O11         O  0.26210725  0.33589427  0.25499429    -0.56300
O12         O  0.20295479  0.30820430  0.31268658    -0.56200
O13         O  0.24671629  0.31290550  0.32342542    -0.55400
O14         O  0.12597765  0.33798385  0.99651710    -0.56600
C15         C  0.08379974  0.32678478  0.06112112     0.76000
O16         O  0.14584987  0.37277156  0.07231163    -0.57800
C17         C  0.14247967  0.35325959  0.98902856     0.76000
C18         C  0.11234573  0.38339235  0.01379283     0.78400
Cd19       Cd  0.12094799  0.35531591  0.03475437     1.37500
O20         O  0.08883424  0.32230920  0.03883898    -0.56600
O21         O  0.10712672  0.36766629  0.00091576    -0.55400
C22         C  0.14676567  0.35804766  0.07843365     0.78300
O23         O  0.12193914  0.38647692  0.03622430    -0.57800
O24         O  0.09564806  0.34407286  0.07017062    -0.56300
O25         O  0.14836765  0.36906604  0.00207351    -0.56200
O26         O  0.13610176  0.34259575  0.06421622    -0.55400
O27         O  0.34635670  0.22834531  0.42841373    -0.56600
C28         C  0.35804405  0.27702421  0.48479910     0.76000
O29         O  0.30060172  0.23290991  0.47017617    -0.57800
C30         C  0.33111067  0.21076104  0.42670978     0.76000
C31         C  0.33835844  0.21857204  0.01523808     0.78400
Cd32       Cd  0.33305579  0.23643075  0.46874874     1.37500
O33         O  0.36411343  0.27023758  0.46660317    -0.54800
O34         O  0.35340175  0.23027460  0.49841815    -0.55400
C35         C  0.30261894  0.24025225  0.44577562     0.78300
O36         O  0.32277194  0.21451557  0.51107810    -0.57800
O37         O  0.34094747  0.26518091  0.49482602    -0.56300
O38         O  0.31732508  0.20556210  0.44410144    -0.56200
O39         O  0.31814311  0.24506855  0.43244638    -0.55400
O40         O  0.32796765  0.11548212  0.26430366    -0.56600
C41         C  0.30882443  0.07201525  0.19508711     0.76000
O42         O  0.35361316  0.13114535  0.18111016    -0.57800
C43         C  0.34477537  0.13126045  0.26891704     0.76000
C44         C  0.36129319  0.09196881  0.24333671     0.78400
Cd45       Cd  0.33943963  0.10750809  0.22202964     1.37500
O46         O  0.30534532  0.07694751  0.21838471    -0.56600
O47         O  0.34387480  0.08578331  0.25084874    -0.55400
C48         C  0.33963613  0.13389212  0.18133248     0.78300
O49         O  0.36939801  0.10599289  0.22528653    -0.57800
O50         O  0.32604847  0.08342059  0.18502067    -0.56300
O51         O  0.35874960  0.13536353  0.25246736    -0.56200
O52         O  0.32666180  0.12502549  0.20026447    -0.55400
O53         O  0.61267520  0.57974209  0.36857850    -0.56600
C54         C  0.56392713  0.55507819  0.42347910     0.76000
O55         O  0.58395647  0.61235091  0.37483049    -0.57800
C56         C  0.61929503  0.59179875  0.34808734     0.76000
C57         C  0.55362548  0.55848390  0.33333245     0.78400
Cd58       Cd  0.58280797  0.58107689  0.37574252     1.37500
O59         O  0.58028790  0.55888270  0.41423568    -0.56600
O60         O  0.56463831  0.55343493  0.34324504    -0.55400
C61         C  0.59197937  0.61816899  0.39854625     0.78300
O62         O  0.55588384  0.57402881  0.34313706    -0.57800
O63         O  0.55646871  0.56308594  0.41057052    -0.56300
O64         O  0.60943669  0.59894814  0.34131705    -0.56200
O65         O  0.59605139  0.60713214  0.41128085    -0.55400
O66         O  0.44636525  0.46221993  0.09451435    -0.56600
C67         C  0.40720307  0.41810008  0.15782244     0.76000
O68         O  0.44904100  0.41066061  0.11605670    -0.57800
C69         C  0.46380966  0.46837270  0.08678097     0.76000
C70         C  0.47087912  0.45825653  0.17353307     0.78400
Cd71       Cd  0.44437504  0.43752467  0.12839701     1.37500
O72         O  0.41203574  0.43241517  0.14115422    -0.56600
O73         O  0.45856839  0.46207961  0.16514837    -0.55400
C74         C  0.43761203  0.40501512  0.09513865     0.78300
O75         O  0.47080767  0.44445266  0.16124018    -0.57800
O76         O  0.41940033  0.41320990  0.16059584    -0.56300
O77         O  0.47177744  0.46050700  0.09860350    -0.56200
O78         O  0.42975548  0.41447461  0.08987405    -0.55400
O79         O  0.92678609  0.69390201  0.44468386    -0.56600
C80         C  0.87059970  0.66422443  0.99216716     0.76000
O81         O  0.87311870  0.64459136  0.40921505    -0.57800
C82         C  0.93426950  0.68624637  0.43102236     0.76000
C83         C  0.89696811  0.63238577  0.48230959     0.78400
Cd84       Cd  0.89399031  0.66134975  0.45133045     1.37500
O85         O  0.88794545  0.67869027  0.48917518    -0.56600
O86         O  0.90501447  0.65010337  0.49017703    -0.55400
C87         C  0.87280322  0.65942144  0.40147762     0.78300
O88         O  0.88741493  0.62776983  0.45950973    -0.57800
O89         O  0.86411502  0.64906492  0.47839283    -0.56300
O90         O  0.92338213  0.66777378  0.42734505    -0.56200
O91         O  0.88226028  0.67467352  0.41648581    -0.55400
O92         O  0.78801930  0.67953670  0.16090805    -0.56600
C93         C  0.74639084  0.67338395  0.22732804     0.76000
O94         O  0.81001826  0.71402087  0.23638498    -0.57800
C95         C  0.80536620  0.69421199  0.15501825     0.76000
C96         C  0.77756505  0.72563344  0.17571428     0.78400
Cd97       Cd  0.78410809  0.69720468  0.20016658     1.37500
O98         O  0.75138423  0.66553307  0.20926495    -0.56600
O99         O  0.77006331  0.70851606  0.16565842    -0.55400
C100        C  0.80789114  0.69819062  0.24548920     0.78300
O101        O  0.78861615  0.72993560  0.19690152    -0.57800
O102        O  0.75852820  0.69159819  0.23196783    -0.56300
O103        O  0.81217297  0.70953067  0.16963868    -0.56200
O104        O  0.79486262  0.68228274  0.23376489    -0.55400
O105        O  0.70359263  0.94564997  0.31181348    -0.56600
C106        C  0.68122285  0.89564537  0.25392108     0.76000
O107        O  0.65621408  0.88674237  0.33675433    -0.57800
C108        C  0.69474698  0.94917795  0.33029154     0.76000
C109        C  0.64973756  0.92388728  0.27012366     0.78400
Cd110      Cd  0.67333655  0.91309929  0.29944065     1.37500
O111        O  0.69461704  0.91259390  0.26294185    -0.56600
O112        O  0.66823753  0.93276532  0.26745306    -0.55400
C113        C  0.67225082  0.88858709  0.34386637     0.78300
O114        O  0.64112155  0.90887555  0.28651357    -0.57800
O115        O  0.66448645  0.88717421  0.26578732    -0.56300
O116        O  0.67662498  0.93606975  0.33438571    -0.56200
O117        O  0.68764712  0.90107605  0.33035349    -0.55400
O118        O  0.64067140  0.74203954  0.05521842    -0.56600
C119        C  0.66492747  0.79631639  0.09920238     0.76000
O120        O  0.70152449  0.78259823  0.04195592    -0.57800
C121        C  0.64302792  0.73776038  0.03075702     0.76000
C122        C  0.66215462  0.79836442  0.00847682     0.78400
Cd123      Cd  0.66876784  0.77747408  0.05130334     1.37500
O124        O  0.65211801  0.77824565  0.09399347    -0.56600
O125        O  0.64834158  0.78454282  0.02306311    -0.55400
C126        C  0.70269686  0.77641071  0.06585693     0.78300
O127        O  0.67953368  0.80300848  0.01378352    -0.57800
O128        O  0.67931804  0.80553774  0.08229764    -0.56300
O129        O  0.65712790  0.75161393  0.01655557    -0.56200
O130        O  0.68864865  0.77132737  0.08265798    -0.55400
O131        O  0.00421804  0.46329563  0.42415989    -0.56600
C132        C  0.99094112  0.41864899  0.36356084     0.76000
O133        O  0.03646724  0.48203777  0.34761323    -0.57800
C134        C  0.02013163  0.47903107  0.43174329     0.76000
C135        C  0.04749611  0.44668061  0.40433335     0.78400
Cd136      Cd  0.02014417  0.45663342  0.38568360     1.37500
O137        O  0.98766201  0.42412758  0.38646658    -0.56600
O138        O  0.03133354  0.44050911  0.41679759    -0.55400
C139        C  0.02070228  0.48046211  0.34000015     0.78300
O140        O  0.05132065  0.45774420  0.38303715    -0.57800
O141        O  0.00739853  0.43061335  0.35181343    -0.56300
O142        O  0.03561433  0.48397126  0.41835983    -0.56200
O143        O  0.00521887  0.46831173  0.35365387    -0.55400
O144        O  0.00328144  0.56158639  0.09702812    -0.56600
C145        C  0.00685159  0.60348314  0.16295253     0.76000
O146        O  0.95487146  0.56542560  0.12070557    -0.57800
C147        C  0.98838739  0.54436082  0.09138828     0.76000
C148        C  0.98172196  0.54290231  0.18095863     0.78400
Cd149      Cd  0.98522144  0.56680536  0.13404723     1.37500
O150        O  0.01598831  0.59886073  0.14658819    -0.56600
O151        O  0.99796425  0.55495804  0.16866402    -0.55400
C152        C  0.96402459  0.57903955  0.10223913     0.78300
O153        O  0.96645141  0.54166361  0.17146965    -0.57800
O154        O  0.98842923  0.59113092  0.16581334    -0.56300
O155        O  0.97279531  0.53805977  0.10544466    -0.56200
O156        O  0.98210004  0.58587178  0.09830559    -0.55400
O157        O  0.89843067  0.25457998  0.18031331    -0.56600
C158        C  0.93688982  0.29370685  0.24449503     0.76000
O159        O  0.89872290  0.24118093  0.25088371    -0.57800
C160        C  0.89454111  0.23825947  0.17083101     0.76000
C161        C  0.95823512  0.27193530  0.18210093     0.78400
Cd162      Cd  0.92318115  0.25802374  0.21446263     1.37500
O163        O  0.92106810  0.28594033  0.23042267    -0.56600
O164        O  0.94810922  0.27934934  0.18054322    -0.55400
C165        C  0.90539684  0.23169857  0.26145836     0.78300
O166        O  0.95205885  0.25727416  0.19868822    -0.57800
O167        O  0.94586659  0.28506242  0.24426875    -0.56300
O168        O  0.90355323  0.23122294  0.18189993    -0.56200
O169        O  0.92064393  0.23409850  0.24999799    -0.55400
O170        O  0.80868977  0.12215854  0.50125275    -0.56600
C171        C  0.77399402  0.08052755  0.44020050     0.76000
O172        O  0.75399813  0.11772798  0.47115079    -0.57800
C173        C  0.80917156  0.13822072  0.01160885     0.76000
C174        C  0.80459902  0.14455659  0.42090475     0.78400
Cd175      Cd  0.78389196  0.11680016  0.46594834     1.37500
O176        O  0.78445899  0.08658397  0.46207919    -0.56600
O177        O  0.81160043  0.13605468  0.43367230    -0.55400
C178        C  0.74631359  0.10458035  0.49023905     0.78300
O179        O  0.78790933  0.14040288  0.42909009    -0.57800
O180        O  0.76853243  0.09129804  0.43050329    -0.56300
O181        O  0.79991855  0.14278068  0.50100274    -0.56200
O182        O  0.75592450  0.09727106  0.49767068    -0.55400
O183        O  0.41534680  0.97911469  0.38042684    -0.56600
C184        C  0.46193320  0.00296025  0.32205031     0.76000
O185        O  0.45067631  0.04483385  0.36004264    -0.57800
C186        C  0.40957869  0.98568578  0.39925311     0.76000
C187        C  0.47222079  0.01816049  0.41371116     0.78400
Cd188      Cd  0.44564544  0.01189882  0.36860004     1.37500
O189        O  0.44451949  0.99057037  0.33074507    -0.56600
O190        O  0.46070491  0.00149710  0.40260678    -0.55400
C191        C  0.43722567  0.03870112  0.34179480     0.78300
O192        O  0.47198679  0.03254669  0.40360124    -0.57800
O193        O  0.47170668  0.01916549  0.33498951    -0.56300
O194        O  0.42019210  0.00416799  0.40323857    -0.56200
O195        O  0.42792618  0.02048437  0.33607586    -0.55400
O196        O  0.57327019  0.02207727  0.15576579    -0.56600
C197        C  0.61037047  0.02068987  0.09534189     0.76000
O198        O  0.56385127  0.96524631  0.13131504    -0.57800
C199        C  0.55554357  0.01023592  0.16376258     0.76000
C200        C  0.54768595  0.99436245  0.07262811     0.78400
Cd201      Cd  0.57181595  0.99917510  0.12026897     1.37500
O202        O  0.60431186  0.02986245  0.10845532    -0.56600
O203        O  0.56014961  0.01114909  0.08276612    -0.55400
C204        C  0.57567153  0.97093225  0.15181048     0.78300
O205        O  0.54640348  0.97957955  0.08426884    -0.57800
O206        O  0.59863692  0.00212753  0.09373041    -0.56300
O207        O  0.54561997  0.99385705  0.15127972    -0.56200
O208        O  0.58497724  0.98913992  0.15758932    -0.55400
O209        O  0.10922499  0.79850148  0.26277655    -0.56600
C210        C  0.06567035  0.76440399  0.32177188     0.76000
O211        O  0.10189832  0.74183141  0.29333823    -0.57800
C212        C  0.12513432  0.80097578  0.25405668     0.76000
C213        C  0.12867859  0.79169240  0.34481551     0.78400
Cd214      Cd  0.10229816  0.77279679  0.29815351     1.37500
O215        O  0.07142929  0.77256032  0.29790468    -0.56600
O216        O  0.12170264  0.79982412  0.33096239    -0.55400
C217        C  0.08974905  0.73515748  0.27328417     0.78300
O218        O  0.12357611  0.77458834  0.33709668    -0.57800
O219        O  0.07680743  0.76045137  0.33426490    -0.56300
O220        O  0.13045627  0.79065427  0.26584381    -0.56200
O221        O  0.08378218  0.74581039  0.26509284    -0.55400
O222        O  0.24329325  0.88830395  0.08357208    -0.56600
C223        C  0.28152550  0.92744703  0.01654397     0.76000
O224        O  0.22006624  0.90707158  0.01399649    -0.57800
C225        C  0.22731724  0.88487551  0.09390188     0.76000
C226        C  0.25785768  0.94846382  0.07580496     0.78400
Cd227      Cd  0.24560799  0.91221374  0.04767293     1.37500
O228        O  0.27626019  0.91382458  0.03471165    -0.56600
O229        O  0.26738074  0.94039207  0.07669313    -0.55400
C230        C  0.21757712  0.89156558  0.00350898     0.78300
O231        O  0.24199128  0.93972768  0.06177273    -0.57800
O232        O  0.27006187  0.93316171  0.01270098    -0.56300
O233        O  0.22038670  0.89396933  0.08282645    -0.56200
O234        O  0.22787396  0.88567031  0.01357615    -0.55400
C235        C  0.16549845  0.83078962  0.19777893     0.19900
C236        C  0.18007553  0.82873969  0.18599334    -0.18200
C237        C  0.19154542  0.84060317  0.16330216    -0.10500
C238        C  0.18872920  0.85491286  0.15202830     0.22100
C239        C  0.17422641  0.85700119  0.16387986    -0.19800
C240        C  0.16283881  0.84522831  0.18656553    -0.10700
C241        C  0.20003999  0.86775273  0.12764482    -0.14800
C242        C  0.21713683  0.87106027  0.11772328    -0.28700
C243        C  0.15362052  0.81767010  0.22174475    -0.03000
C244        C  0.13668106  0.81502614  0.23107544    -0.39500
H245        H  0.18246309  0.81775416  0.19419619     0.13300
H246        H  0.20230076  0.83825271  0.15450766     0.12900
H247        H  0.17177125  0.86794018  0.15565957     0.12300
H248        H  0.15219455  0.84775518  0.19525687     0.12600
H249        H  0.19411541  0.87549579  0.11775639     0.15300
H250        H  0.22393805  0.86410134  0.12725117     0.14100
H251        H  0.15876404  0.80921506  0.23160556     0.11800
H252        H  0.13065678  0.82267683  0.22138543     0.13800
C253        C  0.18761985  0.85530358  0.44297774     0.19900
C254        C  0.18486088  0.83711505  0.43626380    -0.18200
C255        C  0.17195846  0.82534486  0.41490930    -0.10500
C256        C  0.16148226  0.83155796  0.39965296     0.22100
C257        C  0.16429994  0.84976040  0.40635089    -0.19800
C258        C  0.17718601  0.86151320  0.42764164    -0.10700
C259        C  0.14794291  0.82012147  0.37611587    -0.14800
C260        C  0.14209454  0.80164166  0.36875822    -0.28700
C261        C  0.20182954  0.86738683  0.46555801    -0.03000
C262        C  0.20354253  0.88331960  0.47724723    -0.39500
H263        H  0.19279049  0.83199224  0.44755183     0.13300
H264        H  0.17055806  0.81162023  0.41035348     0.12900
H265        H  0.15658047  0.85503953  0.39486845     0.12300
H266        H  0.17906029  0.87553986  0.43147663     0.12600
H267        H  0.14235478  0.82744041  0.36411552     0.15300
H268        H  0.14697394  0.79353297  0.38020265     0.14100
H269        H  0.21112985  0.86263491  0.47335386     0.11800
H270        H  0.19423463  0.88830685  0.47075663     0.13800
C271        C  0.33123940  0.94640280  0.48326023     0.19900
C272        C  0.33840755  0.93628659  0.46989760    -0.18200
C273        C  0.35610750  0.94670639  0.45457605    -0.10500
C274        C  0.36710892  0.96753000  0.45271630     0.22100
C275        C  0.36032260  0.97759714  0.46721211    -0.19800
C276        C  0.34259325  0.96720609  0.48219376    -0.10700
C277        C  0.38575604  0.97950194  0.43630309    -0.14800
C278        C  0.39135703  0.97244898  0.41564900    -0.28700
C279        C  0.31298779  0.93152047  0.00186334    -0.03000
C280        C  0.30023984  0.93709878  0.00074665    -0.39500
H281        H  0.33008739  0.92027379  0.47085795     0.13300
H282        H  0.36111114  0.93839055  0.44447553     0.12900
H283        H  0.36864737  0.99362435  0.46661438     0.12300
H284        H  0.33784755  0.97550157  0.49308714     0.12600
H285        H  0.39493456  0.99525781  0.44062362     0.15300
H286        H  0.38239238  0.95694127  0.41011692     0.14100
H287        H  0.30912116  0.91821349  0.01337063     0.11800
H288        H  0.30368388  0.95452425  0.48659831     0.13800
C289        C  0.52165399  0.00551539  0.01493023     0.19900
C290        C  0.52693316  0.02354306  0.50034974    -0.18200
C291        C  0.51496778  0.02350811  0.47924399    -0.10500
C292        C  0.49700679  0.00593582  0.47231784     0.22100
C293        C  0.50342152  0.99017727  0.97212498    -0.19800
C294        C  0.51500427  0.99090645  0.99436605    -0.10700
C295        C  0.48406360  0.00487149  0.44928617    -0.14800
C296        C  0.48527397  0.02063766  0.43720691    -0.28700
C297        C  0.53434634  0.00716400  0.03866573    -0.03000
C298        C  0.53516958  0.99201293  0.04852799    -0.39500
H299        H  0.54067805  0.03731026  0.50516293     0.13300
H300        H  0.52011585  0.03724259  0.46818327     0.12900
H301        H  0.49852836  0.97879183  0.95657893     0.12300
H302        H  0.51897314  0.98021504  0.99499951     0.12600
H303        H  0.47278384  0.99018113  0.44199248     0.15300
H304        H  0.49566973  0.03549422  0.44462829     0.14100
H305        H  0.54282041  0.02131501  0.04916587     0.11800
H306        H  0.52602434  0.97740663  0.03958892     0.13800
C307        C  0.49818527  0.00924122  0.26389791     0.19900
C308        C  0.51632621  0.02555556  0.25404771    -0.18200
C309        C  0.52628915  0.02365073  0.23184030    -0.10500
C310        C  0.51833941  0.00524249  0.21896639     0.22100
C311        C  0.50016242  0.98895352  0.22869497    -0.19800
C312        C  0.49020577  0.99084546  0.25091131    -0.10700
C313        C  0.52813068  0.00219239  0.19522050    -0.14800
C314        C  0.54692857  0.01513098  0.18675857    -0.28700
C315        C  0.48851958  0.01222702  0.28797204    -0.03000
C316        C  0.47031033  0.99865618  0.29799420    -0.39500
H317        H  0.52283786  0.03992111  0.26355215     0.13300
H318        H  0.54003822  0.03671344  0.22480495     0.12900
H319        H  0.49366051  0.97458680  0.21918174     0.12300
H320        H  0.47645016  0.97777104  0.25780716     0.12600
H321        H  0.51942863  0.98811203  0.18455806     0.15300
H322        H  0.55640754  0.02915826  0.19711238     0.14100
H323        H  0.49690014  0.02660093  0.29790420     0.11800
H324        H  0.46112982  0.98426675  0.28849958     0.13800
C325        C  0.69909141  0.07632531  0.03972931     0.19900
C326        C  0.69126309  0.05914801  0.05625811    -0.18200
C327        C  0.67308558  0.05080075  0.06969239    -0.10500
C328        C  0.66224137  0.05944582  0.06686358     0.22100
C329        C  0.67037592  0.07707465  0.05134090    -0.19800
C330        C  0.68860227  0.08543618  0.03777284    -0.10700
C331        C  0.64246376  0.05027085  0.07993043    -0.14800
C332        C  0.63012215  0.03054337  0.08266775    -0.28700
C333        C  0.71834460  0.08421855  0.02554899    -0.03000
C334        C  0.72582214  0.09792811  0.00488903    -0.39500
H335        H  0.69917143  0.05202654  0.05861996     0.13300
H336        H  0.66762088  0.03762683  0.08241482     0.12900
H337        H  0.66244064  0.08418174  0.04929087     0.12300
H338        H  0.69435151  0.09903092  0.02603200     0.12600
H339        H  0.63759553  0.05975469  0.08606239     0.15300
H340        H  0.63437202  0.02096837  0.07460619     0.14100
H341        H  0.72658230  0.07793359  0.03201943     0.11800
H342        H  0.71913643  0.10423570  0.49510841     0.13800
C343        C  0.86386322  0.20003049  0.11336494     0.19900
C344        C  0.86113127  0.18190741  0.10650030    -0.18200
C345        C  0.84851668  0.17037178  0.08490001    -0.10500
C346        C  0.83837233  0.17680119  0.06928588     0.22100
C347        C  0.84102366  0.19490460  0.07619781    -0.19800
C348        C  0.85364453  0.20645336  0.09790274    -0.10700
C349        C  0.82472728  0.16510826  0.04602968    -0.14800
C350        C  0.82300264  0.14910999  0.03463253    -0.28700
C351        C  0.87769581  0.21157308  0.13650141    -0.03000
C352        C  0.88031134  0.22797865  0.14788417    -0.39500
H353        H  0.86874890  0.17653185  0.11806383     0.13300
H354        H  0.84673123  0.15640455  0.08094595     0.12900
H355        H  0.83337186  0.20022889  0.06461068     0.12300
H356        H  0.85539269  0.22037464  0.10212949     0.12600
H357        H  0.81578211  0.17012030  0.03760749     0.15300
H358        H  0.83184459  0.14374320  0.04187539     0.14100
H359        H  0.88618742  0.20602092  0.14488594     0.11800
H360        H  0.87216868  0.23411211  0.14051860     0.13800
C361        C  0.84404997  0.17582594  0.36431901     0.19900
C362        C  0.86321868  0.18052743  0.35951730    -0.18200
C363        C  0.87492726  0.19352167  0.33791252    -0.10500
C364        C  0.86757123  0.20198946  0.32037549     0.22100
C365        C  0.84844704  0.19736496  0.32524734    -0.19800
C366        C  0.83674064  0.18436404  0.34679962    -0.10700
C367        C  0.87915061  0.21575885  0.29691054    -0.14800
C368        C  0.89567600  0.21840799  0.28581261    -0.28700
C369        C  0.83226037  0.16178230  0.38748892    -0.03000
C370        C  0.81529536  0.15860504  0.39763340    -0.39500
H371        H  0.86925131  0.17419135  0.37269132     0.13300
H372        H  0.88968868  0.19695349  0.33535142     0.12900
H373        H  0.84239395  0.20367006  0.31205316     0.12300
H374        H  0.82197445  0.18094477  0.34919938     0.12600
H375        H  0.87321493  0.22365130  0.28751769     0.15300
H376        H  0.90189371  0.21048744  0.29387238     0.14100
H377        H  0.83811081  0.15386206  0.39707127     0.11800
H378        H  0.80902744  0.16637617  0.38916272     0.13800
C379        C  0.06059815  0.68960677  0.22537903     0.19900
C380        C  0.04297521  0.68185078  0.21040268    -0.18200
C381        C  0.03504742  0.66453451  0.19504385    -0.10500
C382        C  0.04461308  0.65450522  0.19422678     0.22100
C383        C  0.06248911  0.66244661  0.20855654    -0.19800
C384        C  0.07037918  0.67975539  0.22420463    -0.10700
C385        C  0.03605260  0.63575598  0.17859481    -0.14800
C386        C  0.01646691  0.62234617  0.17802807    -0.28700
C387        C  0.06849683  0.70846375  0.24056884    -0.03000
C388        C  0.08285395  0.71598741  0.25999616    -0.39500
H389        H  0.03526388  0.68925777  0.21054016     0.13300
H390        H  0.02153868  0.65913613  0.18355252     0.12900
H391        H  0.07021842  0.65506966  0.20795632     0.12300
H392        H  0.08422365  0.68546409  0.23484904     0.12600
H393        H  0.04593395  0.63251770  0.16868254     0.15300
H394        H  0.00678287  0.62509341  0.18965042     0.14100
H395        H  0.06177982  0.71655975  0.23561434     0.11800
H396        H  0.08945665  0.70809294  0.26655000     0.13800
C397        C  0.94589107  0.33963059  0.28155526     0.19900
C398        C  0.93759201  0.34256372  0.30510537    -0.18200
C399        C  0.94846807  0.36026309  0.32013183    -0.10500
C400        C  0.96768984  0.37536320  0.31141271     0.22100
C401        C  0.97546805  0.37254549  0.28716197    -0.19800
C402        C  0.96474125  0.35495227  0.27243851    -0.10700
C403        C  0.98050248  0.39434452  0.32635325    -0.14800
C404        C  0.97642108  0.39928263  0.35095529    -0.28700
C405        C  0.93543248  0.32036618  0.26705881    -0.03000
C406        C  0.94536771  0.31223891  0.25995878    -0.39500
H407        H  0.92300543  0.33094955  0.31234837     0.13300
H408        H  0.94178799  0.36189466  0.33846916     0.12900
H409        H  0.99009117  0.38393639  0.27970190     0.12300
H410        H  0.97130331  0.35323438  0.25395411     0.12600
H411        H  0.99458883  0.40496187  0.31640576     0.15300
H412        H  0.96270397  0.38930790  0.36200677     0.14100
H413        H  0.91969800  0.31263695  0.26313924     0.11800
H414        H  0.96068245  0.31942785  0.26629129     0.13800
C415        C  0.00377987  0.52409344  0.03132453     0.19900
C416        C  0.02250563  0.52475947  0.52790053    -0.18200
C417        C  0.02233104  0.51267656  0.50707820    -0.10500
C418        C  0.00586883  0.50181689  0.48944009     0.22100
C419        C  0.98655994  0.49699095  0.99825134    -0.19800
C420        C  0.98616730  0.50890530  0.01879260    -0.10700
C421        C  0.00495590  0.48873715  0.46707599    -0.14800
C422        C  0.02111572  0.49139158  0.45487270    -0.28700
C423        C  0.00409822  0.53716441  0.05324129    -0.03000
C424        C  0.98844281  0.53169061  0.06960596    -0.39500
H425        H  0.03530159  0.53288838  0.54124698     0.13300
H426        H  0.03497446  0.51165235  0.50528903     0.12900
H427        H  0.97279800  0.48548032  0.98894893     0.12300
H428        H  0.97204526  0.50634135  0.02429131     0.12600
H429        H  0.99049385  0.47717456  0.45938710     0.15300
H430        H  0.03569816  0.50363244  0.46093601     0.14100
H431        H  0.01780141  0.55141118  0.05663697     0.11800
H432        H  0.97495220  0.51714145  0.06746047     0.13800
C433        C  0.00189936  0.50057360  0.28345474     0.19900
C434        C  0.98536489  0.50179531  0.28155339    -0.18200
C435        C  0.98346374  0.51201861  0.25934791    -0.10500
C436        C  0.99804880  0.52107233  0.23837326     0.22100
C437        C  0.01442683  0.51963750  0.24013786    -0.19800
C438        C  0.01629475  0.50939976  0.26222661    -0.10700
C439        C  0.99731377  0.53272584  0.21480467    -0.14800
C440        C  0.98080615  0.53092335  0.20519246    -0.28700
C441        C  0.00333251  0.48958489  0.30742865    -0.03000
C442        C  0.02033171  0.49205717  0.31623832    -0.39500
H443        H  0.97399136  0.49503847  0.29754686     0.13300
H444        H  0.97081570  0.51310184  0.25903618     0.12900
H445        H  0.02583202  0.52639361  0.22418480     0.12300
H446        H  0.02891751  0.50828176  0.26231124     0.12600
H447        H  0.01121692  0.54295368  0.20412477     0.15300
H448        H  0.96653037  0.52041406  0.21462421     0.14100
H449        H  0.98975863  0.47928051  0.31875615     0.11800
H450        H  0.03426227  0.50273743  0.30610851     0.13800
C451        C  0.61185328  0.93259432  0.23653136     0.19900
C452        C  0.59519731  0.92184209  0.21931801    -0.18200
C453        C  0.58820096  0.93157255  0.20384953    -0.10500
C454        C  0.59766639  0.95225420  0.20567878     0.22100
C455        C  0.61377819  0.96273323  0.22382062    -0.19800
C456        C  0.62074892  0.95309224  0.23904264    -0.10700
C457        C  0.59170338  0.96389200  0.18938697    -0.14800
C458        C  0.57884223  0.95720071  0.16791882    -0.28700
C459        C  0.62010156  0.92254571  0.25159441    -0.03000
C460        C  0.63971802  0.93186019  0.25502560    -0.39500
H461        H  0.58789659  0.90599699  0.21732624     0.13300
H462        H  0.57550040  0.92284551  0.19059527     0.12900
H463        H  0.62122249  0.97858568  0.22605114     0.12300
H464        H  0.63315290  0.96178295  0.25287205     0.12600
H465        H  0.59915761  0.97941000  0.19478946     0.15300
H466        H  0.57119003  0.94195204  0.16131599     0.14100
H467        H  0.61022087  0.90735297  0.25882878     0.11800
H468        H  0.64945802  0.94640583  0.24555124     0.13800
C469        C  0.67299185  0.85724391  0.19856656     0.19900
C470        C  0.65600510  0.83948687  0.18959646    -0.18200
C471        C  0.65681535  0.82896267  0.16731085    -0.10500
C472        C  0.67479079  0.83584981  0.15351437     0.22100
C473        C  0.69179648  0.85364095  0.16237641    -0.19800
C474        C  0.69099441  0.86418617  0.18473163    -0.10700
C475        C  0.67629341  0.82531785  0.12933243    -0.14800
C476        C  0.66299258  0.80604438  0.12374522    -0.28700
C477        C  0.67098283  0.86775422  0.22233969    -0.03000
C478        C  0.68493259  0.88624644  0.23063859    -0.39500
H479        H  0.64190349  0.83379377  0.19970502     0.13300
H480        H  0.64322524  0.81568597  0.16072204     0.12900
H481        H  0.70583373  0.85935571  0.15205877     0.12300
H482        H  0.70453480  0.87760465  0.19104181     0.12600
H483        H  0.68916416  0.83376165  0.11581963     0.15300
H484        H  0.65042182  0.79697755  0.13743946     0.14100
H485        H  0.65687536  0.85987870  0.23327513     0.11800
H486        H  0.69916093  0.89484553  0.22027307     0.13800
C487        C  0.66903346  0.83337293  0.44865417     0.19900
C488        C  0.68350112  0.85313061  0.44187105    -0.18200
C489        C  0.68012349  0.86308083  0.42104216    -0.10500
C490        C  0.66232292  0.85331490  0.40590910     0.22100
C491        C  0.64768833  0.83360183  0.41295264    -0.19800
C492        C  0.65102345  0.82365708  0.43401941    -0.10700
C493        C  0.65891809  0.86341878  0.38262677    -0.14800
C494        C  0.67398301  0.87742016  0.36685456    -0.28700
C495        C  0.67338648  0.82335056  0.47078266    -0.03000
C496        C  0.65931604  0.80906983  0.48742366    -0.39500
H497        H  0.69739873  0.86097827  0.45297537     0.13300
H498        H  0.69148838  0.87849969  0.41700942     0.12900
H499        H  0.63385304  0.82576076  0.40170946     0.12300
H500        H  0.63967122  0.80827597  0.43833946     0.12600
H501        H  0.64391216  0.85880139  0.37773563     0.15300
H502        H  0.68877482  0.88101897  0.37065138     0.14100
H503        H  0.68872403  0.82861744  0.47446058     0.11800
H504        H  0.64407887  0.80447268  0.48499686     0.13800
C505        C  0.74863390  0.03603752  0.39038693     0.19900
C506        C  0.73207008  0.02870230  0.37315651    -0.18200
C507        C  0.72401470  0.01075815  0.35943077    -0.10500
C508        C  0.73250016  0.99977724  0.36235476     0.22100
C509        C  0.74934234  0.00723245  0.37904672    -0.19800
C510        C  0.75728670  0.02514484  0.39319805    -0.10700
C511        C  0.72398699  0.98074737  0.34757461    -0.14800
C512        C  0.70434977  0.96777271  0.34602426    -0.28700
C513        C  0.75649917  0.05532722  0.40415907    -0.03000
C514        C  0.76817448  0.06171342  0.42686094    -0.39500
H515        H  0.72523879  0.03687526  0.37036306     0.13300
H516        H  0.71130339  0.00561213  0.34615589     0.12900
H517        H  0.75621923  0.99907446  0.38135656     0.12300
H518        H  0.77032999  0.03052465  0.40577269     0.12600
H519        H  0.73386703  0.97717380  0.33857321     0.15300
H520        H  0.69467661  0.97081805  0.35705967     0.14100
H521        H  0.75156079  0.06438105  0.39582320     0.11800
H522        H  0.77287743  0.05284344  0.43648144     0.13800
C523        C  0.73553366  0.76512687  0.10912132     0.19900
C524        C  0.74002660  0.76593424  0.13766536    -0.18200
C525        C  0.74997727  0.75753719  0.14778974    -0.10500
C526        C  0.75553033  0.74797603  0.12952191     0.22100
C527        C  0.75173944  0.74784034  0.10085575    -0.19800
C528        C  0.74197980  0.75642700  0.09067638    -0.10700
C529        C  0.76298880  0.73599064  0.14002826    -0.14800
C530        C  0.77307590  0.73965172  0.16404034    -0.28700
C531        C  0.72190108  0.77098621  0.10019330    -0.03000
C532        C  0.71917579  0.77446555  0.07350077    -0.39500
H533        H  0.73508540  0.77236240  0.15239500     0.13300
H534        H  0.75222669  0.75754622  0.17008782     0.12900
H535        H  0.75571674  0.74042362  0.08639189     0.12300
H536        H  0.73851768  0.75511412  0.06865707     0.12600
H537        H  0.75959610  0.72331090  0.12768652     0.15300
H538        H  0.77764021  0.75285476  0.17586267     0.14100
H539        H  0.71295118  0.77158440  0.11646871     0.11800
H540        H  0.72857895  0.77519002  0.05685185     0.13800
C541        C  0.91557192  0.61184486  0.04026835     0.19900
C542        C  0.93051121  0.62122631  0.06041785    -0.18200
C543        C  0.93679951  0.61073571  0.07506505    -0.10500
C544        C  0.92808170  0.59049709  0.07020409     0.22100
C545        C  0.91249520  0.58078944  0.05111841    -0.19800
C546        C  0.90634756  0.59137561  0.03608661    -0.10700
C547        C  0.93550484  0.57966383  0.08478866    -0.14800
C548        C  0.95499373  0.58773213  0.08650385    -0.28700
C549        C  0.91046136  0.62418035  0.02409516    -0.03000
C550        C  0.90083827  0.61900206  0.99947391    -0.39500
H551        H  0.93768982  0.63686880  0.06441507     0.13300
H552        H  0.94855322  0.61846952  0.09017725     0.12900
H553        H  0.90543514  0.56513954  0.04731611     0.12300
H554        H  0.89440837  0.58343988  0.02137299     0.12600
H555        H  0.92505983  0.56496760  0.09334713     0.15300
H556        H  0.96509904  0.60173961  0.07582963     0.14100
H557        H  0.91603658  0.63885993  0.03206643     0.11800
H558        H  0.89548661  0.60472820  0.99037524     0.13800
C559        C  0.82521110  0.67907185  0.09401025     0.19900
C560        C  0.82235228  0.66121247  0.08536993    -0.18200
C561        C  0.83453628  0.66109320  0.06489449    -0.10500
C562        C  0.84974617  0.67890898  0.05228852     0.22100
C563        C  0.85259921  0.69675563  0.06090316    -0.19800
C564        C  0.84037761  0.69687097  0.08127699    -0.10700
C565        C  0.86308246  0.67944222  0.03053182    -0.14800
C566        C  0.85750028  0.66420039  0.01343674    -0.28700
C567        C  0.81211631  0.67861101  0.11616705    -0.03000
C568        C  0.81768450  0.69421230  0.13249853    -0.39500
H569        H  0.81083760  0.64731134  0.09481784     0.13300
H570        H  0.83220381  0.64705979  0.05944061     0.12900
H571        H  0.86415356  0.71065778  0.05151749     0.12300
H572        H  0.84273534  0.71093544  0.08657245     0.12600
H573        H  0.87764096  0.69298067  0.02789986     0.15300
H574        H  0.84264515  0.65098682  0.01485025     0.14100
H575        H  0.79790444  0.66484982  0.11992556     0.11800
H576        H  0.83226468  0.70768370  0.13005204     0.13800
C577        C  0.82924648  0.68019626  0.30157427     0.19900
C578        C  0.82362809  0.66138501  0.31160220    -0.18200
C579        C  0.83432013  0.65938438  0.33283862    -0.10500
C580        C  0.85096944  0.67622393  0.34453611     0.22100
C581        C  0.85656222  0.69498951  0.33453313    -0.19800
C582        C  0.84594684  0.69699641  0.31329311    -0.10700
C583        C  0.86234863  0.67523155  0.36819518    -0.14800
C584        C  0.86171724  0.65894614  0.37651346    -0.28700
C585        C  0.81740012  0.68140018  0.27872933    -0.03000
C586        C  0.82008797  0.69832877  0.26855619    -0.39500
H587        H  0.81082218  0.64815869  0.30309169     0.13300
H588        H  0.82920294  0.64465782  0.34032172     0.12900
H589        H  0.86925467  0.70822748  0.34322729     0.12300
H590        H  0.85109328  0.71179826  0.30626725     0.12600
H591        H  0.87191765  0.68889616  0.37944938     0.15300
H592        H  0.85300411  0.64517082  0.36527854     0.14100
H593        H  0.80572072  0.66747192  0.26982424     0.11800
H594        H  0.83123968  0.71258552  0.27698853     0.13800
C595        C  0.98500158  0.72694670  0.40030872     0.19900
C596        C  0.99074612  0.74093061  0.37857398    -0.18200
C597        C  0.00916821  0.74937781  0.36532073    -0.10500
C598        C  0.02227807  0.74417609  0.37400474     0.22100
C599        C  0.01683554  0.73096846  0.39664386    -0.19800
C600        C  0.99843711  0.72238286  0.40953818    -0.10700
C601        C  0.04172776  0.75189214  0.36046601    -0.14800
C602        C  0.04679784  0.75941962  0.33430443    -0.28700
C603        C  0.96489404  0.71690454  0.41290693    -0.03000
C604        C  0.95469525  0.69758184  0.42005233    -0.39500
H605        H  0.98075140  0.74490324  0.37135875     0.13300
H606        H  0.01304913  0.75992735  0.34845584     0.12900
H607        H  0.02673579  0.72692477  0.40408147     0.12300
H608        H  0.99472179  0.71212366  0.42677709     0.12600
H609        H  0.05204476  0.75002254  0.37221828     0.15300
H610        H  0.03683554  0.76117859  0.32152542     0.14100
H611        H  0.95787780  0.72498832  0.41443595     0.11800
H612        H  0.96107120  0.68913381  0.41579517     0.13800
C613        C  0.60655667  0.65992494  0.45130265     0.19900
C614        C  0.60640673  0.66053111  0.48063812    -0.18200
C615        C  0.61337254  0.67831400  0.49452028    -0.10500
C616        C  0.62076131  0.69600399  0.47927750     0.22100
C617        C  0.62031910  0.69528303  0.44991833    -0.19800
C618        C  0.61330696  0.67748657  0.43603708    -0.10700
C619        C  0.63094191  0.71572493  0.49280547    -0.14800
C620        C  0.63024985  0.71759182  0.01937390    -0.28700
C621        C  0.60113586  0.64111194  0.43777503    -0.03000
C622        C  0.59638111  0.63689827  0.41060754    -0.39500
H623        H  0.60138469  0.64726126  0.49292822     0.13300
H624        H  0.61414948  0.67702619  0.01700621     0.12900
H625        H  0.62604784  0.70869185  0.43762422     0.12300
H626        H  0.61406388  0.67782650  0.41346097     0.12600
H627        H  0.64005520  0.72852866  0.47926746     0.15300
H628        H  0.62067176  0.70560339  0.03376018     0.14100
H629        H  0.60097043  0.63006368  0.45103684     0.11800
H630        H  0.59520134  0.64697492  0.39703488     0.13800
C631        C  0.69670932  0.63338259  0.26117377     0.19900
C632        C  0.69017175  0.61655669  0.27809044    -0.18200
C633        C  0.67293612  0.60845546  0.29440048    -0.10500
C634        C  0.66183823  0.61697106  0.29362418     0.22100
C635        C  0.66805827  0.63324864  0.27577173    -0.19800
C636        C  0.68520436  0.64135207  0.25980291    -0.10700
C637        C  0.64350489  0.60951971  0.31025997    -0.14800
C638        C  0.63751185  0.59728561  0.33269944    -0.28700
C639        C  0.71560990  0.64281402  0.24528321    -0.03000
C640        C  0.72737571  0.66262103  0.24239557    -0.39500
H641        H  0.69864868  0.60996932  0.27917269     0.13300
H642        H  0.66837524  0.59559737  0.30733710     0.12900
H643        H  0.65968325  0.63993551  0.27434105     0.12300
H644        H  0.68941696  0.65388752  0.24627557     0.12600
H645        H  0.63466546  0.61519732  0.30409175     0.15300
H646        H  0.64595318  0.59146860  0.34007904     0.14100
H647        H  0.72032792  0.63362445  0.23718183     0.11800
H648        H  0.72337077  0.67173791  0.25282003     0.13800
C649        C  0.52624139  0.52574988  0.48311529     0.19900
C650        C  0.50632298  0.51895660  0.48684505    -0.18200
C651        C  0.49767063  0.51303262  0.01713612    -0.10500
C652        C  0.50397165  0.50271519  0.03263817     0.22100
C653        C  0.52145856  0.50447900  0.02451441    -0.19800
C654        C  0.53528780  0.52060737  0.50330626    -0.10700
C655        C  0.49282054  0.48961253  0.05695738    -0.14800
C656        C  0.47429598  0.48354085  0.06453434    -0.28700
C657        C  0.53701657  0.53857230  0.45835813    -0.03000
C658        C  0.55411901  0.54205577  0.44816037    -0.39500
H659        H  0.49898037  0.52272934  0.47167790     0.13300
H660        H  0.48452031  0.51243449  0.02280533     0.12900
H661        H  0.52673548  0.49676417  0.03611130     0.12300
H662        H  0.55070681  0.52590245  0.50171222     0.12600
H663        H  0.50002395  0.48370761  0.06847824     0.15300
H664        H  0.46629485  0.48874518  0.05364588     0.14100
H665        H  0.53020311  0.54515925  0.44757111     0.11800
H666        H  0.56107489  0.53525492  0.45771652     0.13800
C667        C  0.49882601  0.49622466  0.23214137     0.19900
C668        C  0.49462090  0.50779261  0.24833095    -0.18200
C669        C  0.50715235  0.51941758  0.27003581    -0.10500
C670        C  0.52434699  0.51987247  0.27583736     0.22100
C671        C  0.52853173  0.50830670  0.25963982    -0.19800
C672        C  0.51603797  0.49672239  0.23793951    -0.10700
C673        C  0.53816119  0.53176438  0.29877795    -0.14800
C674        C  0.53897508  0.54697025  0.31133630    -0.28700
C675        C  0.48514293  0.48432635  0.20909837    -0.03000
C676        C  0.48474883  0.46937254  0.19641466    -0.39500
H677        H  0.48148190  0.50771149  0.24432073     0.13300
H678        H  0.50308596  0.52772198  0.28234707     0.12900
H679        H  0.54167545  0.50838812  0.26360056     0.12300
H680        H  0.52020423  0.48851399  0.22561755     0.12600
H681        H  0.54872585  0.52822962  0.30496188     0.15300
H682        H  0.52934881  0.55160733  0.30494168     0.14100
H683        H  0.47459821  0.48782918  0.20265009     0.11800
H684        H  0.49453331  0.46494263  0.20281607     0.13800
C685        C  0.41196195  0.05765516  0.29447778     0.19900
C686        C  0.39479255  0.04780497  0.27810597    -0.18200
C687        C  0.38793635  0.05823164  0.26467168    -0.10500
C688        C  0.39811700  0.07888244  0.26713799     0.22100
C689        C  0.41571313  0.08894057  0.28251120    -0.19800
C690        C  0.42252762  0.07845843  0.29624323    -0.10700
C691        C  0.39018976  0.08988694  0.25427121    -0.14800
C692        C  0.37073439  0.08232196  0.25514662    -0.28700
C693        C  0.41807535  0.04545082  0.30890646    -0.03000
C694        C  0.43259428  0.05212506  0.32803921    -0.39500
H695        H  0.38646170  0.03187367  0.27592769     0.13300
H696        H  0.37460277  0.05009237  0.25233241     0.12900
H697        H  0.42392016  0.10487412  0.28448806     0.12300
H698        H  0.43602645  0.08678308  0.30808552     0.12600
H699        H  0.40036714  0.10459806  0.24556854     0.15300
H700        H  0.36100042  0.06837575  0.26613994     0.14100
H701        H  0.40973338  0.02980612  0.30384396     0.11800
H702        H  0.44110240  0.06749251  0.33424820     0.13800
C703        C  0.28544943  0.03096937  0.13930580     0.19900
C704        C  0.29451820  0.02775274  0.11706994    -0.18200
C705        C  0.28455935  0.00997352  0.10265421    -0.10500
C706        C  0.26515740  0.99481714  0.11000586     0.22100
C707        C  0.25548935  0.99834009  0.13107843    -0.19800
C708        C  0.26560495  0.01624999  0.14582916    -0.10700
C709        C  0.25537215  0.97522400  0.09621500    -0.14800
C710        C  0.26580559  0.96743147  0.09002210    -0.28700
C711        C  0.29777983  0.04980647  0.15487002    -0.03000
C712        C  0.29378360  0.05368587  0.18039642    -0.39500
H713        H  0.30963284  0.03889128  0.11119991     0.13300
H714        H  0.29219852  0.00802936  0.08583378     0.12900
H715        H  0.24040275  0.98700578  0.13675315     0.12300
H716        H  0.25791778  0.01838051  0.16232662     0.12600
H717        H  0.23960243  0.96688437  0.09227033     0.15300
H718        H  0.28115034  0.97515495  0.09640355     0.14100
H719        H  0.31187842  0.06079960  0.14529587     0.11800
H720        H  0.28003662  0.04319862  0.19107397     0.13800
C721        C  0.33494276  0.18269183  0.07279501     0.19900
C722        C  0.31995682  0.16833994  0.09047884    -0.18200
C723        C  0.32406828  0.15887241  0.11124156    -0.10500
C724        C  0.34337101  0.16351823  0.11495067     0.22100
C725        C  0.35823538  0.17728177  0.09657871    -0.19800
C726        C  0.35412682  0.18678603  0.07576460    -0.10700
C727        C  0.34810484  0.15355675  0.13691838    -0.14800
C728        C  0.33748031  0.14621544  0.16064740    -0.28700
C729        C  0.32975065  0.19252305  0.05119209    -0.03000
C730        C  0.34322722  0.20944098  0.03786730    -0.39500
H731        H  0.30497823  0.16447620  0.08830736     0.13300
H732        H  0.31193125  0.14764890  0.12400481     0.12900
H733        H  0.37310242  0.18077496  0.09843946     0.12300
H734        H  0.36603104  0.19707130  0.06191960     0.12600
H735        H  0.36041633  0.15210505  0.13339882     0.15300
H736        H  0.32573394  0.14841109  0.16478215     0.14100
H737        H  0.31424302  0.18567460  0.04626630     0.11800
H738        H  0.35875927  0.21680146  0.04274668     0.13800
C739        C  0.34113108  0.18489990  0.36856079     0.19900
C740        C  0.35286582  0.19123273  0.34434585    -0.18200
C741        C  0.35083244  0.17749004  0.32490315    -0.10500
C742        C  0.33714184  0.15706819  0.32950892     0.22100
C743        C  0.32554255  0.15072659  0.35380874    -0.19800
C744        C  0.32764093  0.16444346  0.37330503    -0.10700
C745        C  0.33394975  0.14212509  0.30876606    -0.14800
C746        C  0.34831834  0.14494320  0.29159476    -0.28700
C747        C  0.34350382  0.19993524  0.38860009    -0.03000
C748        C  0.32892277  0.19646109  0.40591610    -0.39500
H749        H  0.36336587  0.20686267  0.34021948     0.13300
H750        H  0.35964869  0.18296678  0.30599204     0.12900
H751        H  0.31493983  0.13509771  0.35782048     0.12300
H752        H  0.31881143  0.15887343  0.39217529     0.12600
H753        H  0.31941095  0.12844794  0.30766426     0.15300
H754        H  0.36315240  0.15808670  0.29346646     0.14100
H755        H  0.35739672  0.21433748  0.38865993     0.11800
H756        H  0.31466857  0.18248860  0.40521106     0.13800
C757        C  0.41422754  0.36448747  0.03881051     0.19900
C758        C  0.39800745  0.35815141  0.02120495    -0.18200
C759        C  0.38989594  0.34078150  0.00598550    -0.10500
C760        C  0.39781294  0.32922457  0.00800955     0.22100
C761        C  0.41473512  0.33606019  0.02430112    -0.19800
C762        C  0.42285976  0.35349878  0.03973352    -0.10700
C763        C  0.38950131  0.30936151  0.49363278    -0.14800
C764        C  0.36802169  0.29764272  0.99419559    -0.28700
C765        C  0.42121362  0.38244842  0.05578128    -0.03000
C766        C  0.43331417  0.38801853  0.07799548    -0.39500
H767        H  0.39123786  0.36645627  0.01967585     0.13300
H768        H  0.37722599  0.33625259  0.99291038     0.12900
H769        H  0.42298572  0.32720656  0.52480256     0.12300
H770        H  0.43570909  0.35814257  0.05238506     0.12600
H771        H  0.39790187  0.30348948  0.48642622     0.15300
H772        H  0.35942127  0.30256348  0.00387257     0.14100
H773        H  0.41507330  0.39104070  0.05051826     0.11800
H774        H  0.43949924  0.37972834  0.08451320     0.13800
C775        C  0.07106190  0.42490532  0.44897338     0.19900
C776        C  0.07228374  0.42239541  0.47785816    -0.18200
C777        C  0.08199734  0.41375347  0.48808665    -0.10500
C778        C  0.09048088  0.40712971  0.46955401     0.22100
C779        C  0.08951732  0.40989923  0.44070158    -0.19800
C780        C  0.08005989  0.41880938  0.43048726    -0.10700
C781        C  0.09846760  0.39542781  0.47936121    -0.14800
C782        C  0.10702895  0.39718371  0.00375745    -0.28700
C783        C  0.05879272  0.43218510  0.43893595    -0.03000
C784        C  0.06106008  0.44099885  0.41385351    -0.39500
H785        H  0.06530179  0.42674567  0.49256509     0.13300
H786        H  0.08617939  0.41502577  0.00933981     0.12900
H787        H  0.09571276  0.40471377  0.42596139     0.12300
H788        H  0.07904790  0.42003367  0.40809170     0.12600
H789        H  0.09761978  0.38472387  0.46495400     0.15300
H790        H  0.10938744  0.40865121  0.01789548     0.14100
H791        H  0.04738972  0.43027153  0.45303856     0.11800
H792        H  0.07308751  0.44424275  0.40005515     0.13800
C793        C  0.04160598  0.30585073  0.11559348     0.19900
C794        C  0.03669190  0.31535943  0.13489689    -0.18200
C795        C  0.01928384  0.30468075  0.15044685    -0.10500
C796        C  0.00630640  0.28413498  0.14717056     0.22100
C797        C  0.01156398  0.27436704  0.12890826    -0.19800
C798        C  0.02902170  0.28513413  0.11306365    -0.10700
C799        C  0.98720822  0.27302625  0.16253251    -0.14800
C800        C  0.97662353  0.28098098  0.16575577    -0.28700
C801        C  0.06014038  0.31833322  0.09919002    -0.03000
C802        C  0.06510687  0.31268978  0.07603564    -0.39500
H803        H  0.04624832  0.33121974  0.13772117     0.13300
H804        H  0.01596327  0.31254754  0.16506885     0.12900
H805        H  0.00192298  0.25848878  0.12640207     0.12300
H806        H  0.03255629  0.27716068  0.09904352     0.12600
H807        H  0.98160202  0.25820902  0.17042483     0.15300
H808        H  0.98170029  0.29513319  0.15578222     0.14100
H809        H  0.07005877  0.33346614  0.10620858     0.11800
H810        H  0.05547788  0.29796149  0.06766934     0.13800
C811        C  0.35623737  0.40012133  0.18967130     0.19900
C812        C  0.34793127  0.40889062  0.20390160    -0.18200
C813        C  0.32975093  0.39713365  0.21794826    -0.10500
C814        C  0.31942637  0.37633181  0.21759517     0.22100
C815        C  0.32749062  0.36767583  0.20254042    -0.19800
C816        C  0.34564030  0.37935616  0.18884863    -0.10700
C817        C  0.29986182  0.36290915  0.23135761    -0.14800
C818        C  0.29257099  0.36784946  0.25260123    -0.28700
C819        C  0.37565277  0.41266345  0.17515659    -0.03000
C820        C  0.38824473  0.40691615  0.17312051    -0.39500
H821        H  0.35562802  0.42485794  0.20440487     0.13300
H822        H  0.32373416  0.40434881  0.22859010     0.12900
H823        H  0.31971733  0.35171991  0.20141821     0.12300
H824        H  0.35118302  0.37204395  0.17721962     0.12600
H825        H  0.29119729  0.34773373  0.22403707     0.15300
H826        H  0.30105558  0.38260513  0.26128756     0.14100
H827        H  0.37984144  0.42696243  0.16666968     0.11800
H828        H  0.38470265  0.39335922  0.18352791     0.13800
C829        C  0.26046216  0.27448143  0.36616753     0.19900
C830        C  0.26118812  0.27393523  0.39551246    -0.18200
C831        C  0.26951828  0.26486430  0.40910669    -0.10500
C832        C  0.27757529  0.25635708  0.39353240     0.22100
C833        C  0.27648092  0.25657019  0.36422458    -0.19800
C834        C  0.26796927  0.26542884  0.35066346    -0.10700
C835        C  0.28933763  0.24938487  0.40662887    -0.14800
C836        C  0.28805425  0.24381897  0.43365995    -0.28700
C837        C  0.25360437  0.28621723  0.35248223    -0.03000
C838        C  0.24656425  0.28326312  0.32616177    -0.39500
H839        H  0.25572722  0.28099384  0.40796456     0.13300
H840        H  0.27048799  0.26544622  0.43166513     0.12900
H841        H  0.28280438  0.25037562  0.35168906     0.12300
H842        H  0.26819092  0.26597539  0.32806317     0.12600
H843        H  0.30012161  0.24939203  0.39326029     0.15300
H844        H  0.27676518  0.24255335  0.44728476     0.14100
H845        H  0.25452401  0.29792088  0.36465987     0.11800
H846        H  0.24435293  0.27094721  0.31412763     0.13800
C847        C  0.17124245  0.34184947  0.13198922     0.19900
C848        C  0.16853961  0.32355802  0.13855453    -0.18200
C849        C  0.17871048  0.32174581  0.16077270    -0.10500
C850        C  0.19192644  0.33827611  0.17703408     0.22100
C851        C  0.19491645  0.35661841  0.17006396    -0.19800
C852        C  0.18477397  0.35843428  0.14788974    -0.10700
C853        C  0.20250125  0.33729567  0.20191595    -0.14800
C854        C  0.20179538  0.32109555  0.21096341    -0.28700
C855        C  0.15948744  0.34269899  0.10865805    -0.03000
C856        C  0.15948839  0.35880762  0.10120503    -0.39500
H857        H  0.15831256  0.31052037  0.12665104     0.13300
H858        H  0.17583996  0.30728981  0.16518498     0.12900
H859        H  0.20505025  0.36965502  0.18204657     0.12300
H860        H  0.18766029  0.37289841  0.14361827     0.12600
H861        H  0.21132936  0.35084067  0.21373176     0.15300
H862        H  0.19356718  0.30730374  0.19973360     0.14100
H863        H  0.14994524  0.32908087  0.09729672     0.11800
H864        H  0.16845537  0.37267638  0.11203632     0.13800
C865        C  0.18301658  0.33669068  0.38351215     0.19900
C866        C  0.18418655  0.35414351  0.38988583    -0.18200
C867        C  0.17216574  0.35423090  0.41065657    -0.10500
C868        C  0.15879238  0.33684707  0.42581936     0.22100
C869        C  0.15723491  0.31926768  0.41903740    -0.19800
C870        C  0.16932313  0.31918258  0.39829724    -0.10700
C871        C  0.14645702  0.33669370  0.44889626    -0.14800
C872        C  0.15281980  0.35249735  0.46523903    -0.28700
C873        C  0.19688363  0.33763474  0.36220820    -0.03000
C874        C  0.19369553  0.32177809  0.34837873    -0.39500
H875        H  0.19447667  0.36779210  0.37877961     0.13300
H876        H  0.17334646  0.36793597  0.41469088     0.12900
H877        H  0.14704079  0.30569029  0.43035761     0.12300
H878        H  0.16821290  0.30549838  0.39456073     0.12600
H879        H  0.13237870  0.32299774  0.45351766     0.15300
H880        H  0.16742089  0.36580170  0.46184222     0.14100
H881        H  0.21000465  0.35208627  0.35716099     0.11800
H882        H  0.18017925  0.30735964  0.35180508     0.13800
O883        O  0.22590008  0.33857722  0.82232421    -0.56600
C884        C  0.27343794  0.35376337  0.76508066     0.76000
O885        O  0.23483725  0.29366284  0.78394914    -0.57800
C886        C  0.20860389  0.32327322  0.82620643     0.76000
C887        C  0.21230194  0.32145938  0.73483570     0.78400
Cd888      Cd  0.23404295  0.32385624  0.78387561     1.37500
O889        O  0.26601419  0.35733069  0.78556051    -0.56600
O890        O  0.22215481  0.33693753  0.74933501    -0.55400
C891        C  0.24210573  0.29654477  0.80828194     0.78300
O892        O  0.21217143  0.30647637  0.74308825    -0.57800
O893        O  0.26269301  0.33690715  0.75413574    -0.56300
O894        O  0.20325850  0.30873997  0.81043587    -0.56200
O895        O  0.24524425  0.31163963  0.82088373    -0.55400
O896        O  0.12379463  0.33856583  0.49469039    -0.56600
C897        C  0.08387046  0.32662602  0.56257919     0.76000
O898        O  0.14641709  0.37395488  0.57212286    -0.57800
C899        C  0.14131073  0.35279132  0.48879997     0.76000
C900        C  0.11197788  0.38362603  0.51472800     0.78400
Cd901      Cd  0.12076458  0.35566593  0.53549071     1.37500
O902        O  0.08936086  0.32220536  0.54073213    -0.56600
O903        O  0.10623010  0.36758917  0.50239525    -0.55400
C904        C  0.14703598  0.35914670  0.57888175     0.78300
O905        O  0.12229124  0.38715088  0.53650182    -0.57800
O906        O  0.09515885  0.34416922  0.57111785    -0.56300
O907        O  0.14886023  0.36783558  0.50421661    -0.56200
O908        O  0.13584995  0.34338481  0.56551024    -0.55400
O909        O  0.34556925  0.22860151  0.92796047    -0.56600
C910        C  0.35673809  0.27707294  0.98449612     0.76000
O911        O  0.29978167  0.23395031  0.96928094    -0.57800
C912        C  0.33074276  0.21072726  0.92707479     0.76000
C913        C  0.33992861  0.21809625  0.51505753     0.78400
Cd914      Cd  0.33190611  0.23666596  0.96817236     1.37500
O915        O  0.36319960  0.27039994  0.96671500    -0.54800
O916        O  0.35207349  0.23181449  0.99987474    -0.55400
C917        C  0.30221635  0.24161660  0.94502846     0.78300
O918        O  0.32091940  0.21378635  0.00980851    -0.57800
O919        O  0.33948069  0.26518029  0.99395856    -0.56300
O920        O  0.31705716  0.20547916  0.94466172    -0.56200
O921        O  0.31772173  0.24613782  0.93191149    -0.55400
O922        O  0.32893942  0.11564735  0.76392118    -0.56600
C923        C  0.30874847  0.07220684  0.69675277     0.76000
O924        O  0.35323694  0.12872760  0.67871215    -0.57800
C925        C  0.34572465  0.13136577  0.76877429     0.76000
C926        C  0.36222072  0.09067451  0.73968250     0.78400
Cd927      Cd  0.34053122  0.10738209  0.72191352     1.37500
O928        O  0.30656890  0.07676873  0.72119750    -0.56600
O929        O  0.34430546  0.08336040  0.74558406    -0.55400
C930        C  0.34051555  0.13316310  0.68052127     0.78300
O931        O  0.37102437  0.10647965  0.72488421    -0.57800
O932        O  0.32509076  0.08410705  0.68460687    -0.56300
O933        O  0.35988799  0.13511399  0.75297635    -0.56200
O934        O  0.32889471  0.12621284  0.70126317    -0.55400
O935        O  0.61174363  0.57930449  0.87103540    -0.56600
C936        C  0.56223806  0.55301019  0.92367180     0.76000
O937        O  0.58169367  0.61008935  0.87522611    -0.57800
C938        C  0.61761186  0.59019483  0.84929288     0.76000
C939        C  0.55245915  0.55598908  0.83314371     0.78400
Cd940      Cd  0.58083859  0.57888049  0.87609304     1.37500
O941        O  0.57911238  0.55774211  0.91532306    -0.56600
O942        O  0.56364363  0.55122282  0.84331289    -0.55400
C943        C  0.58915140  0.61555842  0.89932020     0.78300
O944        O  0.55416843  0.57127187  0.84302300    -0.57800
O945        O  0.55394502  0.55965297  0.90948714    -0.56300
O946        O  0.60677781  0.59584839  0.84078764    -0.56200
O947        O  0.59284674  0.60430249  0.91219236    -0.55400
O948        O  0.44700305  0.46095229  0.59178110    -0.56600
C949        C  0.40624750  0.41635883  0.65328402     0.76000
O950        O  0.44911663  0.40961555  0.61465283    -0.57800
C951        C  0.46476330  0.46764435  0.58510483     0.76000
C952        C  0.46952075  0.45524995  0.67393279     0.78400
Cd953      Cd  0.44455557  0.43654282  0.62648473     1.37500
O954        O  0.41276018  0.43272720  0.64064169    -0.56600
O955        O  0.45774688  0.45965747  0.66508638    -0.55400
C956        C  0.43917042  0.40502153  0.59227624     0.78300
O957        O  0.46963387  0.44175268  0.66103665    -0.57800
O958        O  0.41709949  0.40976003  0.65280799    -0.56300
O959        O  0.47299044  0.46052084  0.59826900    -0.56200
O960        O  0.43213860  0.41510581  0.58594413    -0.55400
O961        O  0.92713909  0.69342145  0.94478367    -0.56600
C962        C  0.87035786  0.66399182  0.49368130     0.76000
O963        O  0.87299604  0.64359634  0.91034941    -0.57800
C964        C  0.93491042  0.68547191  0.93265831     0.76000
C965        C  0.89829872  0.63301129  0.98313614     0.78400
Cd966      Cd  0.89458239  0.66102951  0.95150300     1.37500
O967        O  0.88838947  0.67862107  0.98817350    -0.56600
O968        O  0.90560085  0.65057190  0.99119160    -0.55400
C969        C  0.87440371  0.65898482  0.90077298     0.78300
O970        O  0.88898098  0.62812929  0.96012865    -0.57800
O971        O  0.86424382  0.64918791  0.97707367    -0.56300
O972        O  0.92416663  0.66692683  0.92965263    -0.56200
O973        O  0.88529039  0.67479706  0.91421133    -0.55400
O974        O  0.78723984  0.67825645  0.66431731    -0.56600
C975        C  0.74511358  0.67251217  0.72903602     0.76000
O976        O  0.80929082  0.71353646  0.73993492    -0.57800
C977        C  0.80503984  0.69235040  0.65940235     0.76000
C978        C  0.77753006  0.72518491  0.67819356     0.78400
Cd979      Cd  0.78351997  0.69642189  0.70334029     1.37500
O980        O  0.75070821  0.66453262  0.71218114    -0.56600
O981        O  0.77115227  0.70853651  0.66724774    -0.55400
C982        C  0.80739960  0.69779498  0.74893567     0.78300
O983        O  0.78760472  0.72911030  0.70037568    -0.57800
O984        O  0.75697555  0.69081935  0.73322588    -0.56300
O985        O  0.81211259  0.70759370  0.67428035    -0.56200
O986        O  0.79426394  0.68182192  0.73746683    -0.55400
O987        O  0.70259225  0.94678585  0.81206149    -0.56600
C988        C  0.68183404  0.89689705  0.75440321     0.76000
O989        O  0.65686715  0.88751451  0.83582876    -0.57800
C990        C  0.69343889  0.94929544  0.83131048     0.76000
C991        C  0.64894552  0.92374289  0.76975035     0.78400
Cd992      Cd  0.67330624  0.91404560  0.79915281     1.37500
O993        O  0.69463980  0.91446152  0.76209184    -0.56600
O994        O  0.66756538  0.93366482  0.76788180    -0.55400
C995        C  0.67307091  0.88968721  0.84285842     0.78300
O996        O  0.64072366  0.90834802  0.78539095    -0.57800
O997        O  0.66536722  0.88782686  0.76708189    -0.56300
O998        O  0.67550565  0.93557378  0.83544343    -0.56200
O999        O  0.68844690  0.90261337  0.82964641    -0.55400
O1000       O  0.64076502  0.74291640  0.55670234    -0.56600
C1001       C  0.66544436  0.79711756  0.60126922     0.76000
O1002       O  0.70202253  0.78312590  0.54412214    -0.57800
C1003       C  0.64310359  0.73880464  0.53212692     0.76000
C1004       C  0.66354482  0.79937942  0.50990850     0.78400
Cd1005     Cd  0.66928789  0.77829622  0.55320546     1.37500
O1006       O  0.65288289  0.77894326  0.59636105    -0.56600
O1007       O  0.64973488  0.78667346  0.52568415    -0.55400
C1008       C  0.70269608  0.77633853  0.56778821     0.78300
O1009       O  0.68063911  0.80298558  0.51441337    -0.57800
O1010       O  0.67945061  0.80653238  0.58379686    -0.56300
O1011       O  0.65727893  0.75271051  0.51813324    -0.56200
O1012       O  0.68856940  0.77135521  0.58436768    -0.55400
O1013       O  0.00455845  0.46204092  0.92451886    -0.56600
C1014       C  0.99104933  0.41830131  0.86341505     0.76000
O1015       O  0.03804186  0.48128023  0.84603474    -0.57800
C1016       C  0.01971447  0.47900905  0.93014117     0.76000
C1017       C  0.04868650  0.44753346  0.90415536     0.78400
Cd1018     Cd  0.02074481  0.45662902  0.88488991     1.37500
O1019       O  0.98766921  0.42419816  0.88579934    -0.56600
O1020       O  0.03336308  0.44274539  0.91792005    -0.55400
C1021       C  0.02306099  0.48132626  0.83880071     0.78300
O1022       O  0.05163569  0.45719304  0.88162537    -0.57800
O1023       O  0.00768553  0.42997068  0.85200358    -0.56300
O1024       O  0.03491182  0.48511368  0.91528050    -0.56200
O1025       O  0.00745091  0.47026997  0.85290634    -0.55400
O1026       O  0.00550618  0.56393762  0.59687730    -0.56600
C1027       C  0.00969963  0.60726609  0.65954021     0.76000
O1028       O  0.95520757  0.56629895  0.62236532    -0.57800
C1029       C  0.99017833  0.54766259  0.58908969     0.76000
C1030       C  0.98527332  0.54601628  0.68017431     0.78400
Cd1031     Cd  0.98713504  0.56948847  0.63320367     1.37500
O1032       O  0.01821606  0.60244595  0.64230499    -0.56600
O1033       O  0.00085978  0.55706475  0.66597750    -0.55400
C1034       C  0.96347190  0.58068189  0.60489119     0.78300
O1035       O  0.97003803  0.54558004  0.67264167    -0.57800
O1036       O  0.99161465  0.59459277  0.66457696    -0.56300
O1037       O  0.97411806  0.54211690  0.60134744    -0.56200
O1038       O  0.98167764  0.58859973  0.60015287    -0.55400
O1039       O  0.89878748  0.25371539  0.68060909    -0.56600
C1040       C  0.93750487  0.29304494  0.74425179     0.76000
O1041       O  0.89803342  0.23967827  0.75098481    -0.57800
C1042       C  0.89558481  0.23787090  0.67027709     0.76000
C1043       C  0.95912094  0.27134775  0.68529663     0.78400
Cd1044     Cd  0.92315716  0.25682143  0.71528843     1.37500
O1045       O  0.92153066  0.28516277  0.73050293    -0.56600
O1046       O  0.94959235  0.27941245  0.68432295    -0.55400
C1047       C  0.90410682  0.22958103  0.76126112     0.78300
O1048       O  0.95181610  0.25563248  0.70000573    -0.57800
O1049       O  0.94611692  0.28402840  0.74472934    -0.56300
O1050       O  0.90502995  0.23115592  0.68081040    -0.56200
O1051       O  0.91945694  0.23195777  0.75023256    -0.55400
O1052       O  0.80688122  0.12259851  0.00201341    -0.56600
C1053       C  0.77230147  0.08079005  0.94131899     0.76000
O1054       O  0.75206813  0.11734822  0.97204473    -0.57800
C1055       C  0.81043732  0.13734264  0.51162430     0.76000
C1056       C  0.80260678  0.14472642  0.92146923     0.78400
Cd1057     Cd  0.78224264  0.11715156  0.96667585     1.37500
O1058       O  0.78302325  0.08705056  0.96293982    -0.56600
O1059       O  0.80949054  0.13604349  0.93404052    -0.55400
C1060       C  0.74494081  0.10461421  0.99169313     0.78300
O1061       O  0.78602881  0.14078340  0.92987232    -0.57800
O1062       O  0.76670878  0.09145527  0.93163688    -0.56300
O1063       O  0.79903653  0.14395372  0.00046652    -0.56200
O1064       O  0.75503638  0.09791766  0.99944662    -0.55400
O1065       O  0.41424975  0.97704634  0.87996605    -0.56600
C1066       C  0.46143662  0.00154968  0.82167034     0.76000
O1067       O  0.45033345  0.04297589  0.86192684    -0.57800
C1068       C  0.40920334  0.98330299  0.90018622     0.76000
C1069       C  0.47231335  0.01555852  0.91254010     0.78400
Cd1070     Cd  0.44508951  0.00974448  0.86891084     1.37500
O1071       O  0.44431238  0.98869056  0.83094223    -0.56600
O1072       O  0.46126078  0.99911584  0.90061969    -0.55400
C1073       C  0.43728335  0.03735832  0.84316862     0.78300
O1074       O  0.47129832  0.02978077  0.90383711    -0.57800
O1075       O  0.47086622  0.01789334  0.83431525    -0.56300
O1076       O  0.42037689  0.00160266  0.90525532    -0.56200
O1077       O  0.42803703  0.01928005  0.83663254    -0.55400
O1078       O  0.57249118  0.02154643  0.65322884    -0.56600
C1079       C  0.61056996  0.02012464  0.59291559     0.76000
O1080       O  0.56325451  0.96366665  0.62811524    -0.57800
C1081       C  0.55541439  0.00908432  0.66306148     0.76000
C1082       C  0.54674923  0.99359648  0.57245959     0.78400
Cd1083     Cd  0.57186314  0.99816416  0.61890817     1.37500
O1084       O  0.60513956  0.02900196  0.60811739    -0.56600
O1085       O  0.55948035  0.01030306  0.58253672    -0.55400
C1086       C  0.57498645  0.96864590  0.64859166     0.78300
O1087       O  0.54572009  0.97877562  0.58346138    -0.57800
O1088       O  0.59834184  0.00172597  0.59003668    -0.56300
O1089       O  0.54635781  0.99194425  0.65273128    -0.56200
O1090       O  0.58474393  0.98678050  0.65499744    -0.55400
O1091       O  0.10686488  0.79785971  0.75799741    -0.56600
C1092       C  0.06702987  0.76597475  0.82337275     0.76000
O1093       O  0.10440662  0.74584116  0.78909670    -0.57800
C1094       C  0.12407576  0.80279633  0.75122674     0.76000
C1095       C  0.13006355  0.79454879  0.84275809     0.78400
Cd1096     Cd  0.10311151  0.77546351  0.79676376     1.37500
O1097       O  0.07522503  0.77932615  0.80460620    -0.56600
O1098       O  0.12217591  0.80231764  0.83036209    -0.55400
C1099       C  0.09175645  0.73892288  0.76966235     0.78300
O1100       O  0.12555962  0.77788446  0.83391536    -0.57800
O1101       O  0.07538912  0.75711965  0.82937455    -0.56300
O1102       O  0.13147130  0.79534007  0.76565795    -0.56200
O1103       O  0.08448863  0.74874393  0.76320922    -0.55400
O1104       O  0.24269395  0.89226561  0.58245995    -0.56600
C1105       C  0.28091935  0.93134875  0.51406281     0.76000
O1106       O  0.21909823  0.90917841  0.51111262    -0.57800
C1107       C  0.22569609  0.88732574  0.59067128     0.76000
C1108       C  0.25640747  0.95034342  0.57464560     0.78400
Cd1109     Cd  0.24472423  0.91496442  0.54492825     1.37500
O1110       O  0.27520489  0.91680085  0.53073577    -0.56600
O1111       O  0.26592006  0.94226417  0.57546333    -0.55400
C1112       C  0.21769390  0.89432402  0.49999344     0.78300
O1113       O  0.24080406  0.94197699  0.56001527    -0.57800
O1114       O  0.26978029  0.93758024  0.51152825    -0.56300
O1115       O  0.21774664  0.89459653  0.57719373    -0.56200
O1116       O  0.22889395  0.88934270  0.50947065    -0.55400
C1117       C  0.16501644  0.83521001  0.69685103     0.19900
C1118       C  0.18243376  0.83666619  0.68919999    -0.18200
C1119       C  0.19361457  0.84814689  0.66611212    -0.10500
C1120       C  0.18765064  0.85858885  0.65015284     0.22100
C1121       C  0.17044143  0.85744370  0.65818249    -0.19800
C1122       C  0.15927871  0.84597887  0.68125394    -0.10700
C1123       C  0.19866495  0.87089364  0.62511257    -0.14800
C1124       C  0.21569785  0.87406582  0.61506237    -0.28700
C1125       C  0.15350244  0.82235260  0.72119978    -0.03000
C1126       C  0.13483489  0.81640100  0.72750216    -0.39500
H1127       H  0.18731782  0.82868259  0.70096337     0.13300
H1128       H  0.20675804  0.84858413  0.66097748     0.12900
H1129       H  0.16556623  0.86547642  0.64652446     0.12300
H1130       H  0.14632216  0.84581756  0.68671854     0.12600
H1131       H  0.19239556  0.87805834  0.61445613     0.15300
H1132       H  0.22280707  0.86757259  0.62498494     0.14100
H1133       H  0.16059179  0.81695033  0.73411204     0.11800
H1134       H  0.12696726  0.82100932  0.71492331     0.13800
C1135       C  0.18751743  0.85398581  0.94515998     0.19900
C1136       C  0.18100707  0.83419536  0.94069922    -0.18200
C1137       C  0.16868851  0.82367319  0.91819717    -0.10500
C1138       C  0.16276889  0.83284159  0.89931336     0.22100
C1139       C  0.16956527  0.85274750  0.90356798    -0.19800
C1140       C  0.18183446  0.86323846  0.92610890    -0.10700
C1141       C  0.14918718  0.82227070  0.87542876    -0.14800
C1142       C  0.14380243  0.80426507  0.86638553    -0.28700
C1143       C  0.20076591  0.86459391  0.96923786    -0.03000
C1144       C  0.20355710  0.88113294  0.98041291    -0.39500
H1145       H  0.18528223  0.82674321  0.95490985     0.13300
H1146       H  0.16370207  0.80834321  0.91615785     0.12900
H1147       H  0.16539608  0.86026927  0.88932253     0.12300
H1148       H  0.18702338  0.87864065  0.92817145     0.12600
H1149       H  0.14344391  0.82985323  0.86452548     0.15300
H1150       H  0.14957992  0.79637425  0.87601751     0.14100
H1151       H  0.20836270  0.85830094  0.97842184     0.11800
H1152       H  0.19552993  0.88729740  0.97261679     0.13800
C1153       C  0.33211705  0.94291934  0.98652575     0.19900
C1154       C  0.33962026  0.93305736  0.97331420    -0.18200
C1155       C  0.35717657  0.94370955  0.95766440    -0.10500
C1156       C  0.36768639  0.96449121  0.95540441     0.22100
C1157       C  0.36058557  0.97431649  0.96975262    -0.19800
C1158       C  0.34298415  0.96369851  0.98498044    -0.10700
C1159       C  0.38618495  0.97664898  0.93876866    -0.14800
C1160       C  0.39118033  0.96992365  0.91693164    -0.28700
C1161       C  0.31202003  0.93513947  0.49840296    -0.03000
C1162       C  0.29977168  0.94135134  0.49851434    -0.39500
H1163       H  0.33166060  0.91707572  0.97460711     0.13300
H1164       H  0.36251105  0.93565615  0.94762619     0.12900
H1165       H  0.36853896  0.99031425  0.96879901     0.12300
H1166       H  0.33792481  0.97179192  0.99567884     0.12600
H1167       H  0.39562364  0.99227363  0.94380048     0.15300
H1168       H  0.38177993  0.95457831  0.91069386     0.14100
H1169       H  0.30759094  0.92126565  0.50870358     0.11800
H1170       H  0.30371185  0.94964646  0.98760434     0.13800
C1171       C  0.52141649  0.00605442  0.51492723     0.19900
C1172       C  0.51657208  0.01941828  0.01255080    -0.18200
C1173       C  0.50500813  0.01869881  0.99029541    -0.10500
C1174       C  0.49847455  0.00417369  0.96964091     0.22100
C1175       C  0.49144284  0.98843797  0.48693903    -0.19800
C1176       C  0.50341789  0.98847141  0.50805147    -0.10700
C1177       C  0.48598881  0.00269881  0.94575514    -0.14800
C1178       C  0.48549660  0.01801488  0.93574385    -0.28700
C1179       C  0.53459212  0.00714408  0.53764438    -0.03000
C1180       C  0.53354692  0.99137348  0.54932701    -0.39500
H1181       H  0.52142983  0.03078496  0.02811322     0.13300
H1182       H  0.50101025  0.02937244  0.98965745     0.12900
H1183       H  0.47771529  0.97466527  0.48206795     0.12300
H1184       H  0.49828935  0.97472495  0.51907217     0.12600
H1185       H  0.47713090  0.98844434  0.93560987     0.15300
H1186       H  0.49476837  0.03260952  0.94467547     0.14100
H1187       H  0.54593972  0.02181573  0.54491717     0.11800
H1188       H  0.52290844  0.97653248  0.54206963     0.13800
C1189       C  0.49736926  0.00881385  0.76220734     0.19900
C1190       C  0.51695102  0.02403786  0.75555789    -0.18200
C1191       C  0.52720018  0.02191827  0.73393682    -0.10500
C1192       C  0.51801909  0.00445315  0.71820414     0.22100
C1193       C  0.49829813  0.98941908  0.72446236    -0.19800
C1194       C  0.48805232  0.99153630  0.74605564    -0.10700
C1195       C  0.52829799  0.00082885  0.69566815    -0.14800
C1196       C  0.54649666  0.01427860  0.68538937    -0.28700
C1197       C  0.48751370  0.01171437  0.78617021    -0.03000
C1198       C  0.46990071  0.99757257  0.79735552    -0.39500
H1199       H  0.52450929  0.03757555  0.76746506     0.13300
H1200       H  0.54235080  0.03390191  0.73013191     0.12900
H1201       H  0.49074777  0.97583925  0.71264266     0.12300
H1202       H  0.47291207  0.97954675  0.74980834     0.12600
H1203       H  0.52026057  0.98605406  0.68692419     0.15300
H1204       H  0.55504355  0.02930606  0.69300145     0.14100
H1205       H  0.49548455  0.02628105  0.79555926     0.11800
H1206       H  0.46143403  0.98276036  0.78900476     0.13800
C1207       C  0.69992206  0.07625254  0.53735735     0.19900
C1208       C  0.69108116  0.05794880  0.55129980    -0.18200
C1209       C  0.67273249  0.04938270  0.56431809    -0.10500
C1210       C  0.66267921  0.05894255  0.56379492     0.22100
C1211       C  0.67179910  0.07762173  0.55069773    -0.19800
C1212       C  0.69021635  0.08618852  0.53743208    -0.10700
C1213       C  0.64293376  0.04980301  0.57731011    -0.14800
C1214       C  0.63011918  0.03003290  0.57925919    -0.28700
C1215       C  0.71947513  0.08443803  0.52392982    -0.03000
C1216       C  0.72710692  0.09807148  0.50316983    -0.39500
H1217       H  0.69837583  0.05014039  0.55202245     0.13300
H1218       H  0.66662945  0.03537690  0.57515257     0.12900
H1219       H  0.66455702  0.08547855  0.55045914     0.12300
H1220       H  0.69685418  0.10061869  0.52766070     0.12600
H1221       H  0.63861349  0.05943329  0.58492173     0.15300
H1222       H  0.63377720  0.02038331  0.56973730     0.14100
H1223       H  0.72765659  0.07816779  0.53075775     0.11800
H1224       H  0.71788644  0.10417757  0.99709059     0.13800
C1225       C  0.86526825  0.19972008  0.61274549     0.19900
C1226       C  0.86742057  0.18564873  0.59962552    -0.18200
C1227       C  0.85492659  0.17410400  0.57792900    -0.10500
C1228       C  0.83969599  0.17619385  0.56898051     0.22100
C1229       C  0.83763280  0.19040809  0.58194609    -0.19800
C1230       C  0.85021068  0.20203083  0.60364319    -0.10700
C1231       C  0.82593710  0.16427296  0.54595622    -0.14800
C1232       C  0.82415812  0.14817158  0.53481668    -0.28700
C1233       C  0.87870624  0.21102047  0.63628601    -0.03000
C1234       C  0.88157216  0.22768038  0.64708288    -0.39500
H1235       H  0.87893825  0.18359999  0.60614208     0.13300
H1236       H  0.85750929  0.16378978  0.56824726     0.12900
H1237       H  0.82608993  0.19241343  0.57543443     0.12300
H1238       H  0.84779238  0.21244493  0.61343258     0.12600
H1239       H  0.81659526  0.16891928  0.53794918     0.15300
H1240       H  0.83268233  0.14258268  0.54262718     0.14100
H1241       H  0.88713339  0.20544212  0.64482549     0.11800
H1242       H  0.87398641  0.23417633  0.63874063     0.13800
C1243       C  0.84227022  0.17538818  0.86495587     0.19900
C1244       C  0.85772513  0.17441597  0.85414495    -0.18200
C1245       C  0.86930177  0.18660132  0.83184480    -0.10500
C1246       C  0.86572859  0.20023179  0.81991141     0.22100
C1247       C  0.85034071  0.20128581  0.83085094    -0.19800
C1248       C  0.83876418  0.18909797  0.85315014    -0.10700
C1249       C  0.87731890  0.21347991  0.79596154    -0.14800
C1250       C  0.89371797  0.21578126  0.78494394    -0.28700
C1251       C  0.83056628  0.16204494  0.88873882    -0.03000
C1252       C  0.81334295  0.15866549  0.89808851    -0.39500
H1253       H  0.86079762  0.16402639  0.86288611     0.13300
H1254       H  0.88079894  0.18504806  0.82406365     0.12900
H1255       H  0.84727720  0.21169464  0.82215733     0.12300
H1256       H  0.82734185  0.19072027  0.86109397     0.12600
H1257       H  0.87205269  0.22210349  0.78701475     0.15300
H1258       H  0.89982171  0.20780817  0.79321788     0.14100
H1259       H  0.83629266  0.15413100  0.89870994     0.11800
H1260       H  0.80667350  0.16568982  0.88835192     0.13800
C1261       C  0.06457094  0.69428499  0.71960932     0.19900
C1262       C  0.04834090  0.68753154  0.70180567    -0.18200
C1263       C  0.04013279  0.66973102  0.68752819    -0.10500
C1264       C  0.04805220  0.65822133  0.69057198     0.22100
C1265       C  0.06462386  0.66516315  0.70765784    -0.19800
C1266       C  0.07277486  0.68295101  0.72220253    -0.10700
C1267       C  0.03918962  0.63900777  0.67602201    -0.14800
C1268       C  0.01956069  0.62673306  0.67303904    -0.28700
C1269       C  0.07227605  0.71321388  0.73462765    -0.03000
C1270       C  0.08571564  0.72030946  0.75534706    -0.39500
H1271       H  0.04183775  0.69601673  0.69905026     0.13300
H1272       H  0.02768751  0.66507751  0.67390681     0.12900
H1273       H  0.07107999  0.65661706  0.71011783     0.12300
H1274       H  0.08548888  0.68769207  0.73519714     0.12600
H1275       H  0.04874053  0.63436565  0.66926409     0.15300
H1276       H  0.00998013  0.63067382  0.68210560     0.14100
H1277       H  0.06601380  0.72158474  0.72869518     0.11800
H1278       H  0.09218526  0.71240967  0.76243000     0.13800
C1279       C  0.94713091  0.33948608  0.78082993     0.19900
C1280       C  0.93810875  0.34260968  0.80328497    -0.18200
C1281       C  0.94863954  0.36023028  0.81857667    -0.10500
C1282       C  0.96825917  0.37507368  0.81119675     0.22100
C1283       C  0.97683261  0.37208528  0.78805254    -0.19800
C1284       C  0.96644797  0.35458146  0.77306922    -0.10700
C1285       C  0.98065665  0.39410114  0.82616836    -0.14800
C1286       C  0.97652923  0.39884907  0.85090740    -0.28700
C1287       C  0.93670619  0.32028859  0.76605404    -0.03000
C1288       C  0.94649831  0.31205621  0.75865949    -0.39500
H1289       H  0.92314552  0.33121417  0.80943346     0.13300
H1290       H  0.94137399  0.36209663  0.83595896     0.12900
H1291       H  0.99179737  0.38331042  0.78161961     0.12300
H1292       H  0.97361483  0.35283931  0.75537088     0.12600
H1293       H  0.99463824  0.40492720  0.81615039     0.15300
H1294       H  0.96290781  0.38865558  0.86206396     0.14100
H1295       H  0.92089572  0.31241167  0.76270425     0.11800
H1296       H  0.96191358  0.31925318  0.76442655     0.13800
C1297       C  0.00617541  0.52603276  0.53185674     0.19900
C1298       C  0.02170639  0.52719253  0.02251734    -0.18200
C1299       C  0.02210216  0.51524746  0.00205713    -0.10500
C1300       C  0.00450355  0.50005711  0.98947204     0.22100
C1301       C  0.98960613  0.50319196  0.49331472    -0.19800
C1302       C  0.98978575  0.51525754  0.51409617    -0.10700
C1303       C  0.00416518  0.48701227  0.96743875    -0.14800
C1304       C  0.02020126  0.49154731  0.95260981    -0.28700
C1305       C  0.00674394  0.53889056  0.55433687    -0.03000
C1306       C  0.99026340  0.53531582  0.56677982    -0.39500
H1307       H  0.03546253  0.53873599  0.03180004     0.13300
H1308       H  0.03625751  0.51788773  0.99667995     0.12900
H1309       H  0.97680346  0.49509168  0.47997752     0.12300
H1310       H  0.97715567  0.51631418  0.51580926     0.12600
H1311       H  0.99005424  0.47353460  0.96252867     0.15300
H1312       H  0.03426568  0.50536543  0.95596531     0.14100
H1313       H  0.02103467  0.55109203  0.56152598     0.11800
H1314       H  0.97600838  0.52238393  0.56107668     0.13800
C1315       C  0.00653943  0.50417328  0.78269301     0.19900
C1316       C  0.98970606  0.50481715  0.77998712    -0.18200
C1317       C  0.98772393  0.51478299  0.75752541    -0.10500
C1318       C  0.00254800  0.52427809  0.73691611     0.22100
C1319       C  0.01943383  0.52371761  0.73967639    -0.19800
C1320       C  0.02142209  0.51374996  0.76215873    -0.10700
C1321       C  0.00138523  0.53532739  0.71266183    -0.14800
C1322       C  0.98495625  0.53430954  0.70440848    -0.28700
C1323       C  0.00746454  0.49281713  0.80672971    -0.03000
C1324       C  0.02372447  0.49352667  0.81497517    -0.39500
H1325       H  0.97799161  0.49760583  0.79545212     0.13300
H1326       H  0.97466075  0.51513129  0.75673415     0.12900
H1327       H  0.03113681  0.53091813  0.72418446     0.12300
H1328       H  0.03447965  0.51339563  0.76297793     0.12600
H1329       H  0.01488968  0.54469240  0.70066269     0.15300
H1330       H  0.97102087  0.52479951  0.71523657     0.14100
H1331       H  0.99387200  0.48338462  0.81850404     0.11800
H1332       H  0.03773693  0.50304830  0.80433955     0.13800
C1333       C  0.60962970  0.92931139  0.73431172     0.19900
C1334       C  0.59512245  0.91891479  0.71378985    -0.18200
C1335       C  0.58773473  0.92830961  0.69832926    -0.10500
C1336       C  0.59458586  0.94819281  0.70360740     0.22100
C1337       C  0.60841622  0.95809700  0.72500215    -0.19800
C1338       C  0.61582595  0.94885000  0.74010367    -0.10700
C1339       C  0.58855937  0.95984696  0.68749762    -0.14800
C1340       C  0.57756513  0.95424723  0.66405907    -0.28700
C1341       C  0.61874260  0.92011199  0.74925160    -0.03000
C1342       C  0.63821040  0.93091384  0.75470598    -0.39500
H1343       H  0.58996758  0.90376105  0.70916133     0.13300
H1344       H  0.57690874  0.92003780  0.68229388     0.12900
H1345       H  0.61384780  0.97329726  0.72982809     0.12300
H1346       H  0.62654011  0.95710715  0.75633544     0.12600
H1347       H  0.59449349  0.97471943  0.69496187     0.15300
H1348       H  0.57104377  0.93955637  0.65563551     0.14100
H1349       H  0.60976325  0.90445808  0.75464581     0.11800
H1350       H  0.64722813  0.94606681  0.74690382     0.13800
C1351       C  0.67553422  0.85762442  0.70266488     0.19900
C1352       C  0.66472662  0.83685233  0.70343199    -0.18200
C1353       C  0.66529021  0.82629800  0.68094091    -0.10500
C1354       C  0.67655763  0.83634614  0.65691310     0.22100
C1355       C  0.68777048  0.85713817  0.65650416    -0.19800
C1356       C  0.68721881  0.86768772  0.67899211    -0.10700
C1357       C  0.67730842  0.82588333  0.63202793    -0.14800
C1358       C  0.66382807  0.80668089  0.62631739    -0.28700
C1359       C  0.67314415  0.86806095  0.72603545    -0.03000
C1360       C  0.68583079  0.88742613  0.73166314    -0.39500
H1361       H  0.65567315  0.82872355  0.72147722     0.13300
H1362       H  0.65693333  0.81034066  0.68261458     0.12900
H1363       H  0.69668943  0.86528626  0.63837783     0.12300
H1364       H  0.69546782  0.88364019  0.67725688     0.12600
H1365       H  0.68931145  0.83462971  0.61723460     0.15300
H1366       H  0.65124666  0.79765458  0.64001447     0.14100
H1367       H  0.66023404  0.85924429  0.73937751     0.11800
H1368       H  0.69942577  0.89646812  0.71984706     0.13800
C1369       C  0.66786620  0.83390582  0.94899115     0.19900
C1370       C  0.68321133  0.85307303  0.94091862    -0.18200
C1371       C  0.68062847  0.86308176  0.91926344    -0.10500
C1372       C  0.66264873  0.85400954  0.90465157     0.22100
C1373       C  0.64710521  0.83496961  0.91304240    -0.19800
C1374       C  0.64967293  0.82493779  0.93487255    -0.10700
C1375       C  0.65969945  0.86423048  0.88101702    -0.14800
C1376       C  0.67488006  0.87834125  0.86548935    -0.28700
C1377       C  0.67184857  0.82373817  0.97148469    -0.03000
C1378       C  0.65768115  0.80815002  0.98637953    -0.39500
H1379       H  0.69729526  0.86040956  0.95152586     0.13300
H1380       H  0.69275420  0.87804490  0.91435856     0.12900
H1381       H  0.63307068  0.82769177  0.90231969     0.12300
H1382       H  0.63752976  0.81004323  0.94002908     0.12600
H1383       H  0.64477503  0.85980150  0.87594550     0.15300
H1384       H  0.68967797  0.88198884  0.86930014     0.14100
H1385       H  0.68718816  0.82970805  0.97649729     0.11800
H1386       H  0.64224972  0.80241859  0.98283004     0.13800
C1387       C  0.74598376  0.03568695  0.89286234     0.19900
C1388       C  0.72831838  0.02733225  0.87789657    -0.18200
C1389       C  0.72045597  0.00951806  0.86394686    -0.10500
C1390       C  0.73021038  0.99967896  0.86441702     0.22100
C1391       C  0.74809698  0.00814416  0.87891242    -0.19800
C1392       C  0.75588718  0.02594726  0.89326934    -0.10700
C1393       C  0.72207338  0.98095075  0.84903752    -0.14800
C1394       C  0.70253420  0.96741491  0.84795386    -0.28700
C1395       C  0.75376312  0.05495241  0.90653603    -0.03000
C1396       C  0.76636329  0.06188945  0.92819589    -0.39500
H1397       H  0.72053268  0.03465477  0.87695117     0.13300
H1398       H  0.70693499  0.00366849  0.85228035     0.12900
H1399       H  0.75597195  0.00090855  0.87923834     0.12300
H1400       H  0.76979661  0.03221437  0.90401812     0.12600
H1401       H  0.73220328  0.97812807  0.83893577     0.15300
H1402       H  0.69259816  0.96960078  0.85997700     0.14100
H1403       H  0.74801321  0.06349469  0.89907052     0.11800
H1404       H  0.77175055  0.05340675  0.93709417     0.13800
C1405       C  0.73398546  0.76304747  0.61102066     0.19900
C1406       C  0.73898793  0.76449505  0.63942445    -0.18200
C1407       C  0.74922040  0.75642673  0.64966751    -0.10500
C1408       C  0.75449553  0.74648616  0.63168011     0.22100
C1409       C  0.74990253  0.74544869  0.60315005    -0.19800
C1410       C  0.73987690  0.75373552  0.59283796    -0.10700
C1411       C  0.76258588  0.73507589  0.64236979    -0.14800
C1412       C  0.77271249  0.73897047  0.66643378    -0.28700
C1413       C  0.72058129  0.76914311  0.60201110    -0.03000
C1414       C  0.71865992  0.77359245  0.57546981    -0.39500
H1415       H  0.73439077  0.77134715  0.65394681     0.13300
H1416       H  0.75200136  0.75709578  0.67187939     0.12900
H1417       H  0.75355903  0.73765255  0.58891155     0.12300
H1418       H  0.73587131  0.75186747  0.57098060     0.12600
H1419       H  0.75954560  0.72249307  0.63010388     0.15300
H1420       H  0.77682281  0.75199087  0.67839834     0.14100
H1421       H  0.71139500  0.76947124  0.61815828     0.11800
H1422       H  0.72835704  0.77456390  0.55907250     0.13800
C1423       C  0.91319401  0.61053958  0.54047019     0.19900
C1424       C  0.92640857  0.61960137  0.56280909    -0.18200
C1425       C  0.93257445  0.60935211  0.57841576    -0.10500
C1426       C  0.92558555  0.58963725  0.57225544     0.22100
C1427       C  0.91144315  0.58006649  0.55109450    -0.19800
C1428       C  0.90538554  0.59043793  0.53514438    -0.10700
C1429       C  0.93380953  0.57946020  0.58693240    -0.14800
C1430       C  0.95337985  0.58909488  0.59116675    -0.28700
C1431       C  0.90867088  0.62304654  0.52332359    -0.03000
C1432       C  0.89889550  0.61793136  0.49877242    -0.39500
H1433       H  0.93245376  0.63491586  0.56779808     0.13300
H1434       H  0.94308902  0.61697626  0.59509566     0.12900
H1435       H  0.90566677  0.56479928  0.54618299     0.12300
H1436       H  0.89484970  0.58269593  0.51860002     0.12600
H1437       H  0.92413044  0.56387098  0.59244242     0.15300
H1438       H  0.96295519  0.60411261  0.58306310     0.14100
H1439       H  0.91466196  0.63790810  0.53088450     0.11800
H1440       H  0.89274056  0.60337991  0.49010179     0.13800
C1441       C  0.82466259  0.67740337  0.59761504     0.19900
C1442       C  0.82105546  0.65959615  0.58723115    -0.18200
C1443       C  0.83315116  0.65967596  0.56634456    -0.10500
C1444       C  0.84902525  0.67767301  0.55496529     0.22100
C1445       C  0.85256138  0.69545033  0.56532960    -0.19800
C1446       C  0.84048744  0.69536730  0.58617382    -0.10700
C1447       C  0.86239127  0.67858855  0.53272448    -0.14800
C1448       C  0.85728354  0.66343466  0.51563365    -0.28700
C1449       C  0.81152840  0.67681147  0.61991467    -0.03000
C1450       C  0.81757159  0.69188227  0.63759747    -0.39500
H1451       H  0.80899737  0.64555584  0.59559922     0.13300
H1452       H  0.83014657  0.64559342  0.55964740     0.12900
H1453       H  0.86459234  0.70951328  0.55698990     0.12300
H1454       H  0.84344856  0.70945044  0.59279867     0.12600
H1455       H  0.87667583  0.69241267  0.52975633     0.15300
H1456       H  0.84274330  0.64983608  0.51734011     0.14100
H1457       H  0.79675194  0.66352900  0.62223634     0.11800
H1458       H  0.83263729  0.70474856  0.63643966     0.13800
C1459       C  0.83075232  0.68010283  0.80192042     0.19900
C1460       C  0.82481428  0.66136302  0.81262294    -0.18200
C1461       C  0.83597293  0.65937074  0.83302972    -0.10500
C1462       C  0.85348787  0.67613285  0.84310227     0.22100
C1463       C  0.85954693  0.69483962  0.83217150    -0.19800
C1464       C  0.84840882  0.69683046  0.81176067    -0.10700
C1465       C  0.86524673  0.67515996  0.86617885    -0.14800
C1466       C  0.86348541  0.65852581  0.87567745    -0.28700
C1467       C  0.81826213  0.68125278  0.78016146    -0.03000
C1468       C  0.82008465  0.69806179  0.77137644    -0.39500
H1469       H  0.81132854  0.64819999  0.80540688     0.13300
H1470       H  0.83049550  0.64471429  0.84121178     0.12900
H1471       H  0.87295025  0.70801620  0.83955251     0.12300
H1472       H  0.85387282  0.71152185  0.80376133     0.12600
H1473       H  0.87580802  0.68905749  0.87628166     0.15300
H1474       H  0.85366994  0.64441804  0.86569930     0.14100
H1475       H  0.80674479  0.66734358  0.77101452     0.11800
H1476       H  0.83099245  0.71223945  0.78033191     0.13800
C1477       C  0.98565709  0.72532435  0.90191462     0.19900
C1478       C  0.99086433  0.73839810  0.87917542    -0.18200
C1479       C  0.00881226  0.74609604  0.86501998    -0.10500
C1480       C  0.02208268  0.74109443  0.87375134     0.22100
C1481       C  0.01708477  0.72858817  0.89719677    -0.19800
C1482       C  0.99913121  0.72080136  0.91112381    -0.10700
C1483       C  0.04085009  0.74772208  0.85875850    -0.14800
C1484       C  0.04862188  0.76095128  0.83745569    -0.28700
C1485       C  0.96579267  0.71579270  0.91497794    -0.03000
C1486       C  0.95547741  0.69658012  0.92252343    -0.39500
H1487       H  0.98069954  0.74208710  0.87171796     0.13300
H1488       H  0.01187065  0.75552041  0.84699603     0.12900
H1489       H  0.02700803  0.72456098  0.90457904     0.12300
H1490       H  0.99572634  0.71110144  0.92899679     0.12600
H1491       H  0.04874099  0.74116215  0.86571043     0.15300
H1492       H  0.04169290  0.76835498  0.83015828     0.14100
H1493       H  0.95884461  0.72397176  0.91587328     0.11800
H1494       H  0.96179034  0.68799635  0.91891723     0.13800
C1495       C  0.60543986  0.65790822  0.95160425     0.19900
C1496       C  0.60602955  0.65889550  0.98092126    -0.18200
C1497       C  0.61326068  0.67685568  0.99445625    -0.10500
C1498       C  0.62024540  0.69433884  0.97885975     0.22100
C1499       C  0.61914105  0.69323271  0.94954508    -0.19800
C1500       C  0.61182655  0.67525765  0.93602256    -0.10700
C1501       C  0.63066529  0.71423456  0.99190577    -0.14800
C1502       C  0.63028260  0.71877420  0.52034124    -0.28700
C1503       C  0.59968246  0.63896244  0.93824751    -0.03000
C1504       C  0.59351173  0.63420426  0.91161539    -0.39500
H1505       H  0.60133662  0.64578814  0.99342396     0.13300
H1506       H  0.61372268  0.67816975  0.51709967     0.12900
H1507       H  0.62456404  0.70647472  0.93698261     0.12300
H1508       H  0.61206279  0.67527331  0.91342208     0.12600
H1509       H  0.63963519  0.72688265  0.97805254     0.15300
H1510       H  0.62060612  0.70665041  0.53447910     0.14100
H1511       H  0.60055181  0.62836059  0.95112965     0.11800
H1512       H  0.59146537  0.64394060  0.89858777     0.13800
C1513       C  0.69566050  0.63264190  0.76370883     0.19900
C1514       C  0.68957727  0.61628424  0.78143718    -0.18200
C1515       C  0.67218577  0.60793807  0.79742118    -0.10500
C1516       C  0.66047075  0.61573121  0.79554021     0.22100
C1517       C  0.66633122  0.63164546  0.77712137    -0.19800
C1518       C  0.68363563  0.63999589  0.76144056    -0.10700
C1519       C  0.64178505  0.60775226  0.81146436    -0.14800
C1520       C  0.63614215  0.59613179  0.83452090    -0.28700
C1521       C  0.71459059  0.64210029  0.74784967    -0.03000
C1522       C  0.72578709  0.66178684  0.74332318    -0.39500
H1523       H  0.69847833  0.61019557  0.78329179     0.13300
H1524       H  0.66793739  0.59538797  0.81087619     0.12900
H1525       H  0.65749481  0.63779020  0.77492015     0.12300
H1526       H  0.68748375  0.65215187  0.74733432     0.12600
H1527       H  0.63239037  0.61254504  0.80424406     0.15300
H1528       H  0.64520215  0.59132713  0.84301093     0.14100
H1529       H  0.71993633  0.63308828  0.74138454     0.11800
H1530       H  0.72124884  0.67092600  0.75218678     0.13800
C1531       C  0.52571948  0.52586312  0.98526963     0.19900
C1532       C  0.50844121  0.52442828  0.99375139    -0.18200
C1533       C  0.49550855  0.50700948  0.50982860    -0.10500
C1534       C  0.50449324  0.50173233  0.52994791     0.22100
C1535       C  0.52448621  0.50869267  0.52633983    -0.19800
C1536       C  0.53220413  0.51583468  0.00113904    -0.10700
C1537       C  0.49351860  0.48831567  0.55418306    -0.14800
C1538       C  0.47520789  0.48256107  0.56251036    -0.28700
C1539       C  0.53620802  0.53785935  0.95976075    -0.03000
C1540       C  0.55283422  0.54057893  0.94889740    -0.39500
H1541       H  0.50314028  0.53209542  0.98210198     0.13300
H1542       H  0.48011238  0.50176057  0.51129737     0.12900
H1543       H  0.53183154  0.50488911  0.54146133     0.12300
H1544       H  0.54540401  0.51647076  0.99573199     0.12600
H1545       H  0.50091392  0.48256622  0.56557290     0.15300
H1546       H  0.46737612  0.48818835  0.55225720     0.14100
H1547       H  0.52980121  0.54496134  0.94928377     0.11800
H1548       H  0.56007480  0.53415122  0.95862697     0.13800
C1549       C  0.49696851  0.49253585  0.73338105     0.19900
C1550       C  0.50015070  0.51101626  0.73905704    -0.18200
C1551       C  0.51281929  0.52282109  0.76048244    -0.10500
C1552       C  0.52246465  0.51626746  0.77706683     0.22100
C1553       C  0.51921038  0.49773131  0.77143930    -0.19800
C1554       C  0.50655732  0.48593587  0.74995445    -0.10700
C1555       C  0.53635348  0.52832325  0.79990887    -0.14800
C1556       C  0.53817509  0.54450057  0.81078660    -0.28700
C1557       C  0.48336050  0.48069379  0.71026812    -0.03000
C1558       C  0.48268538  0.46551983  0.69784595    -0.39500
H1559       H  0.49297433  0.51647839  0.72661454     0.13300
H1560       H  0.51513149  0.53712688  0.76348230     0.12900
H1561       H  0.52641057  0.49228115  0.78384140     0.12300
H1562       H  0.50420337  0.47161578  0.74678904     0.12600
H1563       H  0.54537427  0.52345156  0.80845225     0.15300
H1564       H  0.52908537  0.54956982  0.80354136     0.14100
H1565       H  0.47395568  0.48527285  0.70230710     0.11800
H1566       H  0.49235848  0.46096400  0.70433763     0.13800
C1567       C  0.41305245  0.05722569  0.79535616     0.19900
C1568       C  0.39667386  0.04751554  0.77749233    -0.18200
C1569       C  0.38962793  0.05778914  0.76410802    -0.10500
C1570       C  0.39872823  0.07820045  0.76826721     0.22100
C1571       C  0.41549053  0.08813175  0.78546077    -0.19800
C1572       C  0.42256905  0.07779096  0.79898821    -0.10700
C1573       C  0.39083897  0.08925814  0.75511841    -0.14800
C1574       C  0.37146060  0.08038972  0.74980739    -0.28700
C1575       C  0.41939408  0.04504866  0.80929245    -0.03000
C1576       C  0.43295647  0.05115004  0.82978287    -0.39500
H1577       H  0.38915267  0.03177694  0.77391883     0.13300
H1578       H  0.37711853  0.04965595  0.75029649     0.12900
H1579       H  0.42293127  0.10388153  0.78882832     0.12300
H1580       H  0.43543307  0.08600506  0.81210163     0.12600
H1581       H  0.40076080  0.10513315  0.75181981     0.15300
H1582       H  0.36126611  0.06495754  0.75565983     0.14100
H1583       H  0.41188360  0.02974665  0.80270531     0.11800
H1584       H  0.44074940  0.06618000  0.83737484     0.13800
C1585       C  0.28333235  0.03089437  0.64176035     0.19900
C1586       C  0.29027560  0.02897819  0.61597514    -0.18200
C1587       C  0.28005603  0.01117246  0.60165401    -0.10500
C1588       C  0.26255833  0.99475612  0.61269456     0.22100
C1589       C  0.25484610  0.99682515  0.63763949    -0.19800
C1590       C  0.26522968  0.01474111  0.65224584    -0.10700
C1591       C  0.25301343  0.97532804  0.59873271    -0.14800
C1592       C  0.26415278  0.96905224  0.58933052    -0.28700
C1593       C  0.29614246  0.04982225  0.65684708    -0.03000
C1594       C  0.29332583  0.05365670  0.68311788    -0.39500
H1595       H  0.30399514  0.04117370  0.60714733     0.13300
H1596       H  0.28605345  0.01012937  0.58205522     0.12900
H1597       H  0.24124644  0.98438647  0.64633701     0.12300
H1598       H  0.25915829  0.01565623  0.67178431     0.12600
H1599       H  0.23702795  0.96587870  0.59735634     0.15300
H1600       H  0.27992166  0.97783451  0.59344327     0.14100
H1601       H  0.30947272  0.06110609  0.64588471     0.11800
H1602       H  0.28035414  0.04302809  0.69515240     0.13800
C1603       C  0.33503713  0.18222243  0.57333592     0.19900
C1604       C  0.32129703  0.17128107  0.59465825    -0.18200
C1605       C  0.32463402  0.16054765  0.61421988    -0.10500
C1606       C  0.34191872  0.16052731  0.61300969     0.22100
C1607       C  0.35532513  0.17085531  0.59105015    -0.19800
C1608       C  0.35200462  0.18166157  0.57146579    -0.10700
C1609       C  0.34603557  0.14949696  0.63390766    -0.14800
C1610       C  0.33848849  0.14556374  0.65993225    -0.28700
C1611       C  0.33059023  0.19309809  0.55267697    -0.03000
C1612       C  0.34454662  0.20853332  0.53731997    -0.39500
H1613       H  0.30789884  0.17103982  0.59620449     0.13300
H1614       H  0.31340327  0.15202526  0.62994135     0.12900
H1615       H  0.36849321  0.17070071  0.58917936     0.12300
H1616       H  0.36257571  0.18919634  0.55467046     0.12600
H1617       H  0.35555324  0.14465579  0.62784938     0.15300
H1618       H  0.32948358  0.15087979  0.66645078     0.14100
H1619       H  0.31527606  0.18824624  0.55009758     0.11800
H1620       H  0.35998430  0.21403198  0.54021678     0.13800
C1621       C  0.34054158  0.18501097  0.86779305     0.19900
C1622       C  0.35361089  0.19146676  0.84496760    -0.18200
C1623       C  0.35192020  0.17799631  0.82523910    -0.10500
C1624       C  0.33713259  0.15766453  0.82802226     0.22100
C1625       C  0.32408157  0.15120244  0.85075560    -0.19800
C1626       C  0.32586969  0.16460358  0.87058063    -0.10700
C1627       C  0.33431071  0.14287849  0.80714081    -0.14800
C1628       C  0.34900160  0.14532879  0.79099148    -0.28700
C1629       C  0.34280929  0.19994521  0.88817226    -0.03000
C1630       C  0.32878722  0.19616052  0.90688740    -0.39500
H1631       H  0.36503101  0.20703634  0.84219585     0.13300
H1632       H  0.36193613  0.18366076  0.80755027     0.12900
H1633       H  0.31256815  0.13565223  0.85335984     0.12300
H1634       H  0.31577274  0.15865358  0.88813020     0.12600
H1635       H  0.31967730  0.12939793  0.80527368     0.15300
H1636       H  0.36389630  0.15827257  0.79339755     0.14100
H1637       H  0.35627675  0.21470137  0.88730081     0.11800
H1638       H  0.31491804  0.18182753  0.90765717     0.13800
C1639       C  0.41783210  0.36572819  0.53444354     0.19900
C1640       C  0.40176542  0.35951713  0.51657309    -0.18200
C1641       C  0.39293268  0.34156020  0.50260742    -0.10500
C1642       C  0.40012066  0.32943524  0.50595290     0.22100
C1643       C  0.41701808  0.33619297  0.52227395    -0.19800
C1644       C  0.42576283  0.35413625  0.53661105    -0.10700
C1645       C  0.38782193  0.30952720  0.99457690    -0.14800
C1646       C  0.36967910  0.29769410  0.49421222    -0.28700
C1647       C  0.42520743  0.38399967  0.55083144    -0.03000
C1648       C  0.43542735  0.38835036  0.57484557    -0.39500
H1649       H  0.39555429  0.36829253  0.51411449     0.13300
H1650       H  0.38026719  0.33700301  0.48950226     0.12900
H1651       H  0.42124164  0.32751488  0.02588980     0.12300
H1652       H  0.43852176  0.35872172  0.54946185     0.12600
H1653       H  0.39657284  0.30399661  0.98758375     0.15300
H1654       H  0.36147779  0.30301104  0.50408471     0.14100
H1655       H  0.42044323  0.39352866  0.54399838     0.11800
H1656       H  0.44004212  0.37898495  0.58284701     0.13800
C1657       C  0.07214270  0.42552973  0.94825158     0.19900
C1658       C  0.07521256  0.42475004  0.97699919    -0.18200
C1659       C  0.08473158  0.41585818  0.98697819    -0.10500
C1660       C  0.09117240  0.40723411  0.96836904     0.22100
C1661       C  0.08822427  0.40815978  0.93956681    -0.19800
C1662       C  0.07891644  0.41727977  0.92956800    -0.10700
C1663       C  0.09912367  0.39547911  0.97826980    -0.14800
C1664       C  0.10640749  0.39723362  0.50481998    -0.28700
C1665       C  0.06028696  0.43338330  0.93879216    -0.03000
C1666       C  0.06211627  0.44163189  0.91340494    -0.39500
H1667       H  0.06988948  0.43074026  0.99186202     0.13300
H1668       H  0.08199262  0.41142774  0.51040813     0.12900
H1669       H  0.09275182  0.40139876  0.92476727     0.12300
H1670       H  0.07631847  0.41710125  0.90733696     0.12600
H1671       H  0.09807009  0.38461702  0.96398356     0.15300
H1672       H  0.10861813  0.40868590  0.51889436     0.14100
H1673       H  0.04962868  0.43239567  0.95353820     0.11800
H1674       H  0.07344883  0.44386031  0.89894013     0.13800
C1675       C  0.04205722  0.30409776  0.61794146     0.19900
C1676       C  0.03821888  0.31294721  0.63974198    -0.18200
C1677       C  0.02057621  0.30232976  0.65477668    -0.10500
C1678       C  0.00622315  0.28248805  0.64842165     0.22100
C1679       C  0.01030845  0.27324737  0.62750080    -0.19800
C1680       C  0.02803746  0.28396765  0.61223007    -0.10700
C1681       C  0.98691938  0.27154523  0.66329915    -0.14800
C1682       C  0.97810445  0.28080385  0.67044914    -0.28700
C1683       C  0.06086897  0.31670761  0.60210371    -0.03000
C1684       C  0.06521746  0.31217039  0.57736413    -0.39500
H1685       H  0.04882696  0.32830177  0.64495694     0.13300
H1686       H  0.01819439  0.30971319  0.67143439     0.12900
H1687       H  0.99957441  0.25787857  0.62252981     0.12300
H1688       H  0.03061279  0.27641518  0.59610927     0.12600
H1689       H  0.97948205  0.25573741  0.66709186     0.15300
H1690       H  0.98479271  0.29616576  0.66422417     0.14100
H1691       H  0.07152808  0.33111016  0.61091685     0.11800
H1692       H  0.05506676  0.29809372  0.56751348     0.13800
C1693       C  0.35679179  0.39943900  0.68997264     0.19900
C1694       C  0.34964624  0.40853784  0.70619032    -0.18200
C1695       C  0.33179346  0.39711513  0.72109516    -0.10500
C1696       C  0.32067682  0.37630849  0.71980274     0.22100
C1697       C  0.32772292  0.36731767  0.70326899    -0.19800
C1698       C  0.34543135  0.37865000  0.68848742    -0.10700
C1699       C  0.30110190  0.36319458  0.73356289    -0.14800
C1700       C  0.29353268  0.36836789  0.75409061    -0.28700
C1701       C  0.37587035  0.41178547  0.67441987    -0.03000
C1702       C  0.38705459  0.40486224  0.66799344    -0.39500
H1703       H  0.35794081  0.42452483  0.70741294     0.13300
H1704       H  0.32663479  0.40462884  0.73303183     0.12900
H1705       H  0.31934230  0.35135269  0.70148251     0.12300
H1706       H  0.34988005  0.37098210  0.67542542     0.12600
H1707       H  0.29234727  0.34801388  0.72626760     0.15300
H1708       H  0.30192447  0.38308669  0.76288770     0.14100
H1709       H  0.38121060  0.42703833  0.66925193     0.11800
H1710       H  0.38255319  0.39018099  0.67505190     0.13800
C1711       C  0.25915246  0.27364198  0.86271507     0.19900
C1712       C  0.25915400  0.27300633  0.89209794    -0.18200
C1713       C  0.26818674  0.26496976  0.90650941    -0.10500
C1714       C  0.27755262  0.25749671  0.89171381     0.22100
C1715       C  0.27703447  0.25761389  0.86235828    -0.19800
C1716       C  0.26789922  0.26550946  0.84796396    -0.10700
C1717       C  0.28976537  0.25141238  0.90568627    -0.14800
C1718       C  0.28801467  0.24559804  0.93266081    -0.28700
C1719       C  0.25182121  0.28474612  0.84851234    -0.03000
C1720       C  0.24707918  0.28324814  0.82121375    -0.39500
H1721       H  0.25267366  0.27932663  0.90397508     0.13300
H1722       H  0.26860867  0.26552999  0.92909223     0.12900
H1723       H  0.28427929  0.25210210  0.85044676     0.12300
H1724       H  0.26863271  0.26605968  0.82538884     0.12600
H1725       H  0.30100184  0.25186170  0.89282961     0.15300
H1726       H  0.27635761  0.24396850  0.94583121     0.14100
H1727       H  0.25061062  0.29503037  0.86125673     0.11800
H1728       H  0.24698763  0.27240084  0.80808369     0.13800
C1729       C  0.17114469  0.34274972  0.63231007     0.19900
C1730       C  0.17230857  0.32612607  0.63425144    -0.18200
C1731       C  0.18240537  0.32405317  0.65628512    -0.10500
C1732       C  0.19146339  0.33857027  0.67703172     0.22100
C1733       C  0.19038574  0.35522146  0.67495988    -0.19800
C1734       C  0.18028664  0.35727869  0.65300105    -0.10700
C1735       C  0.20238433  0.33737383  0.70109814    -0.14800
C1736       C  0.20146979  0.32099330  0.70964263    -0.28700
C1737       C  0.15950583  0.34374191  0.60910100    -0.03000
C1738       C  0.15993214  0.36003227  0.60144692    -0.39500
H1739       H  0.16537215  0.31468386  0.61863739     0.13300
H1740       H  0.18314693  0.31116247  0.65672997     0.12900
H1741       H  0.19718994  0.36661904  0.69065704     0.12300
H1742       H  0.17942387  0.37008837  0.65280078     0.12600
H1743       H  0.21126087  0.35078751  0.71315278     0.15300
H1744       H  0.19253093  0.30711776  0.69873119     0.14100
H1745       H  0.14999626  0.33016718  0.59764174     0.11800
H1746       H  0.16955714  0.37405848  0.61170044     0.13800
C1747       C  0.18745353  0.33564937  0.88918963     0.19900
C1748       C  0.19482018  0.35251734  0.90567036    -0.18200
C1749       C  0.18336993  0.35302785  0.92690986    -0.10500
C1750       C  0.16400070  0.33665175  0.93212232     0.22100
C1751       C  0.15675123  0.31956047  0.91612490    -0.19800
C1752       C  0.16827807  0.31901208  0.89489952    -0.10700
C1753       C  0.15110089  0.33666110  0.95427500    -0.14800
C1754       C  0.15477203  0.35324931  0.96644903    -0.28700
C1755       C  0.20052199  0.33628216  0.86673249    -0.03000
C1756       C  0.19501305  0.32194512  0.84790870    -0.39500
H1757       H  0.20958642  0.36543949  0.90214144     0.13300
H1758       H  0.19003976  0.36627637  0.93925370     0.12900
H1759       H  0.14205085  0.30661184  0.91992103     0.12300
H1760       H  0.16197167  0.30547545  0.88330791     0.12600
H1761       H  0.13798103  0.32253713  0.96053767     0.15300
H1762       H  0.16742282  0.36761299  0.96020822     0.14100
H1763       H  0.21550172  0.34938604  0.86550819     0.11800
H1764       H  0.18023402  0.30864484  0.84814742     0.13800
loop_ 
_geom_bond_atom_site_label_1 
_geom_bond_atom_site_label_2 
_geom_bond_distance 
_geom_bond_site_symmetry_2 
_ccdc_geom_bond_type 
O1            C4   1.272       .  A
O1           Cd6   2.494       .  S
C2           O11   1.265       .  A
C2            O7   1.271       .  A
C2          C818   1.485       .  S
O3            C9   1.270       .  A
O3           Cd6   2.492       .  S
C4           O12   1.265       .  A
C4          C874   1.480       .  S
C5           O10   1.271       .  A
C5            O8   1.266       .  A
C5          C854   1.483       .  S
Cd6          O13   2.458       .  S
Cd6          O12   2.449       .  S
Cd6          O11   2.437       .  S
Cd6           O7   2.511       .  S
Cd6          O10   2.492       .  S
Cd6           O8   2.447       .  S
C9           O13   1.266       .  A
C9          C838   1.482       .  S
O14          C17   1.271       .  A
O14         Cd19   2.489   1_556  S
C15          O24   1.264       .  A
C15          O20   1.270       .  A
C15         C802   1.480       .  S
O16          C22   1.270       .  A
O16         Cd19   2.490       .  S
C17          O25   1.265   1_556  A
C17        C1754   1.475       .  S
C18          O23   1.269       .  A
C18          O21   1.267       .  A
C18         C782   1.483       .  S
Cd19         O26   2.440       .  S
Cd19         O25   2.426       .  S
Cd19         O24   2.417       .  S
Cd19         O20   2.505       .  S
Cd19         O23   2.489       .  S
Cd19         O21   2.470       .  S
C22          O26   1.264       .  A
C22         C856   1.480       .  S
O27          C30   1.273       .  A
O27         Cd32   2.481       .  S
C28          O37   1.265       .  A
C28          O33   1.273       .  A
C28        C1646   1.472       .  S
O29          C35   1.274       .  A
O29         Cd32   2.496       .  S
C30          O38   1.265       .  A
C30         C748   1.471       .  S
C31         O918   1.274       .  A
C31         O916   1.264   1_554  A
C31         C730   1.478       .  S
Cd32         O39   2.427       .  S
Cd32         O38   2.410       .  S
Cd32         O37   2.412       .  S
Cd32         O33   2.497       .  S
Cd32         O36   2.499       .  S
Cd32         O34   2.429       .  S
O34         C913   1.264       .  A
C35          O39   1.268       .  A
C35         C836   1.484       .  S
O36         C913   1.273       .  A
O40          C43   1.274       .  A
O40         Cd45   2.468       .  S
C41          O50   1.268       .  A
C41          O46   1.273       .  A
C41         C712   1.485       .  S
O42          C48   1.276       .  A
O42         Cd45   2.514       .  S
C43          O51   1.266       .  A
C43         C746   1.471       .  S
C44          O49   1.275       .  A
C44          O47   1.265       .  A
C44         C692   1.477       .  S
Cd45         O52   2.408       .  S
Cd45         O51   2.413       .  S
Cd45         O50   2.419       .  S
Cd45         O46   2.502       .  S
Cd45         O49   2.514       .  S
Cd45         O47   2.408       .  S
C48          O52   1.265       .  A
C48         C728   1.478       .  S
O53          C56   1.267       .  A
O53         Cd58   2.518       .  S
C54          O63   1.265       .  A
C54          O59   1.268       .  A
C54         C658   1.480       .  S
O55          C61   1.266       .  A
O55         Cd58   2.489       .  S
C56          O64   1.264       .  A
C56         C638   1.485       .  S
C57          O62   1.266       .  A
C57          O60   1.265       .  A
C57         C674   1.477       .  S
Cd58         O65   2.464       .  S
Cd58         O64   2.448       .  S
Cd58         O63   2.449       .  S
Cd58         O59   2.490       .  S
Cd58         O62   2.486       .  S
Cd58         O60   2.455       .  S
C61          O65   1.266       .  A
C61         C622   1.479       .  S
O66          C69   1.271       .  A
O66         Cd71   2.499       .  S
C67          O76   1.264       .  A
C67          O72   1.271       .  A
C67         C820   1.476       .  S
O68          C74   1.269       .  A
O68         Cd71   2.490       .  S
C69          O77   1.265       .  A
C69         C656   1.479       .  S
C70          O75   1.269       .  A
C70          O73   1.266       .  A
C70         C676   1.474       .  S
Cd71         O78   2.431       .  S
Cd71         O77   2.414       .  S
Cd71         O76   2.429       .  S
Cd71         O72   2.504       .  S
Cd71         O75   2.465       .  S
Cd71         O73   2.432       .  S
C74          O78   1.266       .  A
C74         C766   1.479       .  S
O79          C82   1.271       .  A
O79         Cd84   2.524       .  S
C80         O971   1.264       .  A
C80         O967   1.272       .  A
C80         C566   1.475   1_556  S
O81          C87   1.270       .  A
O81         Cd84   2.505       .  S
C82          O90   1.264       .  A
C82         C604   1.478       .  S
C83          O88   1.272       .  A
C83          O86   1.267       .  A
C83        C1432   1.486       .  S
Cd84         O91   2.442       .  S
Cd84         O90   2.435       .  S
Cd84         O89   2.425       .  S
Cd84         O85   2.517       .  S
Cd84         O88   2.497       .  S
Cd84         O86   2.441       .  S
O85         C962   1.273       .  A
C87          O91   1.265       .  A
C87         C584   1.483       .  S
O89         C962   1.264       .  A
O92          C95   1.273       .  A
O92         Cd97   2.501       .  S
C93         O102   1.264       .  A
C93          O98   1.273       .  A
C93         C640   1.473       .  S
O94         C100   1.270       .  A
O94         Cd97   2.481       .  S
C95         O103   1.263       .  A
C95         C568   1.474       .  S
C96         O101   1.270       .  A
C96          O99   1.268       .  A
C96         C530   1.479       .  S
Cd97        O104   2.439       .  S
Cd97        O103   2.409       .  S
Cd97        O102   2.410       .  S
Cd97         O98   2.506       .  S
Cd97        O101   2.477       .  S
Cd97         O99   2.450       .  S
C100        O104   1.265       .  A
C100        C586   1.479       .  S
O105        C108   1.273       .  A
O105       Cd110   2.492       .  S
C106        O115   1.268       .  A
C106        O111   1.271       .  A
C106        C478   1.480       .  S
O107        C113   1.275       .  A
O107       Cd110   2.516       .  S
C108        O116   1.266       .  A
C108        C512   1.473       .  S
C109        O114   1.275       .  A
C109        O112   1.264       .  A
C109        C460   1.476       .  S
Cd110       O117   2.392       .  S
Cd110       O116   2.421       .  S
Cd110       O115   2.435       .  S
Cd110       O111   2.480       .  S
Cd110       O114   2.526       .  S
Cd110       O112   2.397       .  S
C113        O117   1.264       .  A
C113        C494   1.474       .  S
O118        C121   1.269       .  A
O118       Cd123   2.497       .  S
C119        O128   1.267       .  A
C119        O124   1.270       .  A
C119        C476   1.479       .  S
O120        C126   1.269       .  A
O120       Cd123   2.501       .  S
C121        O129   1.264       .  A
C121        C620   1.479       .  S
C122        O127   1.272       .  A
C122        O125   1.264       .  A
C122       C1378   1.478   1_554  S
Cd123       O130   2.447       .  S
Cd123       O129   2.436       .  S
Cd123       O128   2.455       .  S
Cd123       O124   2.475       .  S
Cd123       O127   2.490       .  S
Cd123       O125   2.440       .  S
C126        O130   1.264       .  A
C126        C532   1.480       .  S
O131        C134   1.270       .  A
O131       Cd136   2.485       .  S
C132        O141   1.266   1_655  A
C132        O137   1.270       .  A
C132        C404   1.480       .  S
O133        C139   1.270       .  A
O133       Cd136   2.495       .  S
C134        O142   1.264       .  A
C134        C422   1.474       .  S
C135        O140   1.270       .  A
C135        O138   1.266       .  A
C135        C784   1.483       .  S
Cd136       O143   2.442       .  S
Cd136       O142   2.434       .  S
Cd136       O141   2.409       .  S
Cd136       O137   2.493   1_455  S
Cd136       O140   2.493       .  S
Cd136       O138   2.457       .  S
C139        O143   1.264       .  A
C139        C442   1.479       .  S
O144        C147   1.275   1_455  A
O144       Cd149   2.490   1_455  S
C145        O154   1.266   1_455  A
C145        O150   1.275       .  A
C145        C386   1.473       .  S
O146        C152   1.275       .  A
O146       Cd149   2.493       .  S
C147        O155   1.265       .  A
C147        C424   1.474       .  S
C148        O153   1.274       .  A
C148        O151   1.268       .  A
C148        C440   1.480       .  S
Cd149       O156   2.401       .  S
Cd149       O155   2.406       .  S
Cd149       O154   2.403       .  S
Cd149       O150   2.490   1_655  S
Cd149       O153   2.486       .  S
Cd149       O151   2.410       .  S
C152        O156   1.266       .  A
C152        C548   1.472       .  S
O157        C160   1.269       .  A
O157       Cd162   2.486       .  S
C158        O167   1.264       .  A
C158        O163   1.271       .  A
C158        C406   1.469       .  S
O159        C165   1.265       .  A
O159       Cd162   2.411       .  S
C160        O168   1.266       .  A
C160        C352   1.478       .  S
C161        O166   1.272       .  A
C161        O164   1.264       .  A
C161        C800   1.471       .  S
Cd162       O169   2.488       .  S
Cd162       O168   2.433       .  S
Cd162       O167   2.413       .  S
Cd162       O163   2.495       .  S
Cd162       O166   2.504       .  S
Cd162       O164   2.409       .  S
C165        O169   1.270       .  A
C165        C368   1.476       .  S
O170       C1055   1.267       .  A
O170       Cd175   2.479       .  S
C171        O180   1.265       .  A
C171        O176   1.267       .  A
C171        C514   1.477       .  S
O172        C178   1.267       .  A
O172       Cd175   2.490       .  S
C173       O1052   1.267       .  A
C173       O1063   1.265       .  A
C173        C350   1.474       .  S
C174        O179   1.267       .  A
C174        O177   1.265       .  A
C174        C370   1.474       .  S
Cd175       O182   2.441       .  S
Cd175       O181   2.445       .  S
Cd175       O180   2.433       .  S
Cd175       O176   2.489       .  S
Cd175       O179   2.475       .  S
Cd175       O177   2.443       .  S
C178        O182   1.265       .  A
C178       C1216   1.479       .  S
O181       C1055   1.265       .  A
O183        C186   1.268       .  A
O183       Cd188   2.486   1_565  S
C184        O193   1.266       .  A
C184        O189   1.267   1_545  A
C184        C316   1.480   1_545  S
O185        C191   1.269       .  A
O185       Cd188   2.500       .  S
C186        O194   1.266   1_565  A
C186        C278   1.480       .  S
C187        O192   1.270       .  A
C187        O190   1.264       .  A
C187        C296   1.482       .  S
Cd188       O195   2.464       .  S
Cd188       O194   2.446       .  S
Cd188       O193   2.458       .  S
Cd188       O189   2.486   1_545  S
Cd188       O192   2.504       .  S
Cd188       O190   2.444       .  S
C191        O195   1.266       .  A
C191        C694   1.484       .  S
O196        C199   1.268       .  A
O196       Cd201   2.486   1_545  S
C197        O206   1.263       .  A
C197        O202   1.269       .  A
C197        C332   1.470       .  S
O198        C204   1.270       .  A
O198       Cd201   2.506       .  S
C199        O207   1.265   1_545  A
C199        C314   1.478       .  S
C200        O205   1.268       .  A
C200        O203   1.265   1_565  A
C200        C298   1.479       .  S
Cd201       O208   2.435       .  S
Cd201       O207   2.432       .  S
Cd201       O206   2.422   1_565  S
Cd201       O202   2.488   1_565  S
Cd201       O205   2.484       .  S
Cd201       O203   2.459   1_565  S
C204        O208   1.266       .  A
C204        C458   1.485       .  S
O209        C212   1.267       .  A
O209       Cd214   2.482       .  S
C210        O219   1.265       .  A
C210        O215   1.266       .  A
C210        C602   1.481       .  S
O211        C217   1.267       .  A
O211       Cd214   2.510       .  S
C212        O220   1.265       .  A
C212        C244   1.477       .  S
C213        O218   1.268       .  A
C213        O216   1.266       .  A
C213        C260   1.481       .  S
Cd214       O221   2.445       .  S
Cd214       O220   2.455       .  S
Cd214       O219   2.443       .  S
Cd214       O215   2.503       .  S
Cd214       O218   2.491       .  S
Cd214       O216   2.448       .  S
C217        O221   1.264       .  A
C217        C388   1.481       .  S
O222        C225   1.270       .  A
O222       Cd227   2.506       .  S
C223        O232   1.264       .  A
C223        O228   1.272       .  A
C223        C280   1.475       .  S
O224        C230   1.268       .  A
O224       Cd227   2.476       .  S
C225        O233   1.264       .  A
C225        C242   1.480       .  S
C226        O231   1.270       .  A
C226        O229   1.263       .  A
C226        C710   1.473       .  S
Cd227       O234   2.450       .  S
Cd227       O233   2.414       .  S
Cd227       O232   2.419       .  S
Cd227       O228   2.505       .  S
Cd227       O231   2.510       .  S
Cd227       O229   2.421       .  S
C230        O234   1.266       .  A
C230       C1144   1.478   1_554  S
C235        C243   1.490       .  S
C235        C236   1.407       .  A
C235        C240   1.406       .  A
C236        C237   1.401       .  A
C236        H245   1.083       .  S
C237        C238   1.406       .  A
C237        H246   1.081       .  S
C238        C241   1.486       .  S
C238        C239   1.404       .  A
C239        C240   1.396       .  A
C239        H247   1.083       .  S
C240        H248   1.080       .  S
C241        H249   1.087       .  S
C241        C242   1.349       .  D
C242        H250   1.084       .  S
C243        H251   1.087       .  S
C243        C244   1.349       .  D
C244        H252   1.083       .  S
C253        C261   1.492       .  S
C253        C254   1.406       .  A
C253        C258   1.407       .  A
C254        C255   1.401       .  A
C254        H263   1.083       .  S
C255        C256   1.408       .  A
C255        H264   1.080       .  S
C256        C259   1.492       .  S
C256        C257   1.405       .  A
C257        C258   1.398       .  A
C257        H265   1.083       .  S
C258        H266   1.080       .  S
C259        H267   1.087       .  S
C259        C260   1.349       .  D
C260        H268   1.083       .  S
C261        H269   1.087       .  S
C261        C262   1.350       .  D
C262       C1112   1.478       .  S
C262        H270   1.083       .  S
C271       C1161   1.487       .  S
C271        C272   1.404       .  A
C271        C276   1.406       .  A
C272        C273   1.403       .  A
C272        H281   1.083       .  S
C273        C274   1.409       .  A
C273        H282   1.081       .  S
C274        C277   1.489       .  S
C274        C275   1.404       .  A
C275        C276   1.396       .  A
C275        H283   1.084       .  S
C276        H284   1.083       .  S
C277        H285   1.087       .  S
C277        C278   1.348       .  D
C278        H286   1.084       .  S
C279       C1153   1.487   1_554  S
C279        H287   1.086       .  S
C279        C280   1.344       .  D
C280       H1170   1.087   1_554  S
H288       C1162   1.086       .  S
C289        C297   1.490       .  S
C289        C294   1.407   1_544  A
C289       C1172   1.405       .  A
C290        C291   1.400       .  A
C290       C1171   1.406       .  A
C290        H299   1.082       .  S
C291        C292   1.406       .  A
C291        H300   1.081       .  S
C292        C295   1.493       .  S
C292       C1175   1.407   1_545  A
C293        C294   1.400       .  A
C293       C1174   1.405   1_565  A
C293        H301   1.082       .  S
C294        H302   1.082       .  S
C295        H303   1.086   1_545  S
C295        C296   1.352       .  D
C296        H304   1.083       .  S
C297        H305   1.086       .  S
C297        C298   1.349   1_545  D
C298        H306   1.083       .  S
C307        C315   1.492       .  S
C307        C308   1.406       .  A
C307        C312   1.408   1_545  A
C308        C309   1.399       .  A
C308        H317   1.083       .  S
C309        C310   1.406       .  A
C309        H318   1.081       .  S
C310        C313   1.489       .  S
C310        C311   1.405   1_545  A
C311        C312   1.399       .  A
C311        H319   1.083       .  S
C312        H320   1.079       .  S
C313        H321   1.087   1_545  S
C313        C314   1.349       .  D
C314        H322   1.083       .  S
C315        H323   1.087       .  S
C315        C316   1.349   1_545  D
C316        H324   1.082       .  S
C325        C333   1.486       .  S
C325        C326   1.403       .  A
C325        C330   1.409       .  A
C326        C327   1.395       .  A
C326        H335   1.083       .  S
C327        C328   1.406       .  A
C327        H336   1.082       .  S
C328        C331   1.484       .  S
C328        C329   1.402       .  A
C329        C330   1.400       .  A
C329        H337   1.083       .  S
C330        H338   1.081       .  S
C331        H339   1.087       .  S
C331        C332   1.343       .  D
C332        H340   1.086       .  S
C333        H341   1.087       .  S
C333        C334   1.347       .  D
C334       C1060   1.475   1_554  S
C334       H1224   1.083   1_554  S
H342       C1216   1.084       .  S
C343        C351   1.489       .  S
C343        C344   1.404       .  A
C343        C348   1.408       .  A
C344        C345   1.396       .  A
C344        H353   1.084       .  S
C345        C346   1.407       .  A
C345        H354   1.079       .  S
C346        C349   1.490       .  S
C346        C347   1.406       .  A
C347        C348   1.400       .  A
C347        H355   1.084       .  S
C348        H356   1.080       .  S
C349        H357   1.088       .  S
C349        C350   1.348       .  D
C350        H358   1.083       .  S
C351        H359   1.088       .  S
C351        C352   1.348       .  D
C352        H360   1.083       .  S
C361        C369   1.488       .  S
C361        C362   1.405       .  A
C361        C366   1.407       .  A
C362        C363   1.398       .  A
C362        H371   1.084       .  S
C363        C364   1.406       .  A
C363        H372   1.080       .  S
C364        C367   1.486       .  S
C364        C365   1.404       .  A
C365        C366   1.397       .  A
C365        H373   1.084       .  S
C366        H374   1.080       .  S
C367        H375   1.088       .  S
C367        C368   1.348       .  D
C368        H376   1.083       .  S
C369        H377   1.088       .  S
C369        C370   1.347       .  D
C370        H378   1.084       .  S
C379        C387   1.489       .  S
C379        C380   1.404       .  A
C379        C384   1.409       .  A
C380        C381   1.395       .  A
C380        H389   1.084       .  S
C381        C382   1.406       .  A
C381        H390   1.082       .  S
C382        C385   1.486       .  S
C382        C383   1.403       .  A
C383        C384   1.403       .  A
C383        H391   1.084       .  S
C384        H392   1.081       .  S
C385        H393   1.087       .  S
C385        C386   1.343       .  D
C386        H394   1.087       .  S
C387        H395   1.088       .  S
C387        C388   1.348       .  D
C388        H396   1.084       .  S
C397        C405   1.482       .  S
C397        C398   1.404       .  A
C397        C402   1.402       .  A
C398        C399   1.405       .  A
C398        H407   1.083       .  S
C399        C400   1.410       .  A
C399        H408   1.081       .  S
C400        C403   1.487       .  S
C400        C401   1.403       .  A
C401        C402   1.391       .  A
C401        H409   1.083       .  S
C402        H410   1.084       .  S
C403        H411   1.087       .  S
C403        C404   1.348       .  D
C404        H412   1.083       .  S
C405        H413   1.086       .  S
C405        C406   1.343       .  D
C406        H414   1.087       .  S
C415        C423   1.490       .  S
C415        C420   1.409   1_455  A
C415       C1298   1.402       .  A
C416        C417   1.401       .  A
C416       C1297   1.403       .  A
C416        H425   1.083       .  S
C417        C418   1.409       .  A
C417        H426   1.082       .  S
C418        C421   1.488       .  S
C418       C1301   1.402   1_455  A
C419        C420   1.399   1_556  A
C419       C1300   1.404   1_655  A
C419        H427   1.083       .  S
C420        H428   1.081       .  S
C421        H429   1.087   1_455  S
C421        C422   1.343       .  D
C422        H430   1.085       .  S
C423        H431   1.087       .  S
C423        C424   1.343   1_455  D
C424        H432   1.084       .  S
C433        C441   1.489       .  S
C433        C434   1.407   1_455  A
C433        C438   1.406       .  A
C434        C435   1.402       .  A
C434        H443   1.084       .  S
C435        C436   1.406       .  A
C435        H444   1.081       .  S
C436        C439   1.487       .  S
C436        C437   1.404   1_655  A
C437        C438   1.397       .  A
C437        H445   1.084       .  S
C438        H446   1.081       .  S
C439        H447   1.087   1_655  S
C439        C440   1.349       .  D
C440        H448   1.085       .  S
C441        H449   1.087   1_455  S
C441        C442   1.351       .  D
C442        H450   1.084       .  S
C451        C459   1.493       .  S
C451        C452   1.406       .  A
C451        C456   1.406       .  A
C452        C453   1.408       .  A
C452        H461   1.083       .  S
C453        C454   1.410       .  A
C453        H462   1.080       .  S
C454        C457   1.493       .  S
C454        C455   1.404       .  A
C455        C456   1.394       .  A
C455        H463   1.083       .  S
C456        H464   1.083       .  S
C457        H465   1.087       .  S
C457        C458   1.350       .  D
C458        H466   1.083       .  S
C459        H467   1.086       .  S
C459        C460   1.346       .  D
C460        H468   1.086       .  S
C469        C477   1.492       .  S
C469        C470   1.405       .  A
C469        C474   1.408       .  A
C470        C471   1.398       .  A
C470        H479   1.084       .  S
C471        C472   1.407       .  A
C471        H480   1.081       .  S
C472        C475   1.491       .  S
C472        C473   1.405       .  A
C473        C474   1.401       .  A
C473        H481   1.084       .  S
C474        H482   1.080       .  S
C475        H483   1.087       .  S
C475        C476   1.349       .  D
C476        H484   1.084       .  S
C477        H485   1.087       .  S
C477        C478   1.349       .  D
C478        H486   1.083       .  S
C487        C495   1.486       .  S
C487        C488   1.400       .  A
C487        C492   1.409       .  A
C488        C489   1.396       .  A
C488        H497   1.083       .  S
C489        C490   1.409       .  A
C489        H498   1.082       .  S
C490        C493   1.491       .  S
C490        C491   1.403       .  A
C491        C492   1.402       .  A
C491        H499   1.083       .  S
C492        H500   1.082       .  S
C493        H501   1.086       .  S
C493        C494   1.343       .  D
C494        H502   1.086       .  S
C495        H503   1.087       .  S
C495        C496   1.342       .  D
C496       C1004   1.475       .  S
C496        H504   1.086       .  S
C505        C513   1.485       .  S
C505        C506   1.403       .  A
C505        C510   1.409       .  A
C506        C507   1.394       .  A
C506        H515   1.084       .  S
C507        C508   1.405   1_545  A
C507        H516   1.083       .  S
C508        C511   1.484       .  S
C508        C509   1.403   1_565  A
C509        C510   1.403       .  A
C509        H517   1.084   1_545  S
C510        H518   1.081       .  S
C511        H519   1.086       .  S
C511        C512   1.343       .  D
C512        H520   1.087       .  S
C513        H521   1.087       .  S
C513        C514   1.346       .  D
C514        H522   1.084       .  S
C523        C531   1.490       .  S
C523        C524   1.406       .  A
C523        C528   1.407       .  A
C524        C525   1.400       .  A
C524        H533   1.083       .  S
C525        C526   1.406       .  A
C525        H534   1.082       .  S
C526        C529   1.488       .  S
C526        C527   1.404       .  A
C527        C528   1.400       .  A
C527        H535   1.083       .  S
C528        H536   1.081       .  S
C529        H537   1.087       .  S
C529        C530   1.347       .  D
C530        H538   1.085       .  S
C531        H539   1.087       .  S
C531        C532   1.349       .  D
C532        H540   1.084       .  S
C541        C549   1.490       .  S
C541        C542   1.404       .  A
C541        C546   1.410       .  A
C542        C543   1.396       .  A
C542        H551   1.083       .  S
C543        C544   1.404       .  A
C543        H552   1.083       .  S
C544        C547   1.484       .  S
C544        C545   1.402       .  A
C545        C546   1.403       .  A
C545        H553   1.083       .  S
C546        H554   1.080       .  S
C547        H555   1.086       .  S
C547        C548   1.342       .  D
C548        H556   1.087       .  S
C549        H557   1.087       .  S
C549        C550   1.349   1_554  D
C550        C965   1.480       .  S
C550        H558   1.083       .  S
C559        C567   1.491       .  S
C559        C560   1.402       .  A
C559        C564   1.410       .  A
C560        C561   1.400       .  A
C560        H569   1.083       .  S
C561        C562   1.409       .  A
C561        H570   1.081       .  S
C562        C565   1.489       .  S
C562        C563   1.401       .  A
C563        C564   1.398       .  A
C563        H571   1.083       .  S
C564        H572   1.081       .  S
C565        H573   1.087       .  S
C565        C566   1.343       .  D
C566        H574   1.085       .  S
C567        H575   1.087       .  S
C567        C568   1.343       .  D
C568        H576   1.085       .  S
C577        C585   1.494       .  S
C577        C578   1.408       .  A
C577        C582   1.407       .  A
C578        C579   1.402       .  A
C578        H587   1.082       .  S
C579        C580   1.406       .  A
C579        H588   1.082       .  S
C580        C583   1.491       .  S
C580        C581   1.405       .  A
C581        C582   1.398       .  A
C581        H589   1.082       .  S
C582        H590   1.080       .  S
C583        H591   1.086       .  S
C583        C584   1.350       .  D
C584        H592   1.084       .  S
C585        H593   1.086       .  S
C585        C586   1.352       .  D
C586        H594   1.081       .  S
C595        C603   1.490       .  S
C595        C596   1.406       .  A
C595        C600   1.405       .  A
C596        C597   1.406   1_655  A
C596        H605   1.083       .  S
C597        C598   1.409       .  A
C597        H606   1.082       .  S
C598        C601   1.488       .  S
C598        C599   1.403       .  A
C599        C600   1.395   1_455  A
C599        H607   1.084       .  S
C600        H608   1.083       .  S
C601        H609   1.087       .  S
C601        C602   1.348       .  D
C602        H610   1.085       .  S
C603        H611   1.086       .  S
C603        C604   1.346       .  D
C604        H612   1.087       .  S
C613        C621   1.490       .  S
C613        C614   1.405       .  A
C613        C618   1.407       .  A
C614        C615   1.400       .  A
C614        H623   1.083       .  S
C615        C616   1.406       .  A
C615       H1506   1.081       .  S
C616        C619   1.489       .  S
C616        C617   1.406       .  A
C617        C618   1.400       .  A
C617        H625   1.083       .  S
C618        H626   1.081       .  S
C619        H627   1.087       .  S
C619       C1502   1.350       .  D
C620        H628   1.084       .  S
C620       C1501   1.349   1_554  D
C621        H629   1.087       .  S
C621        C622   1.348       .  D
C622        H630   1.084       .  S
H624       C1497   1.081   1_554  S
C631        C639   1.489       .  S
C631        C632   1.406       .  A
C631        C636   1.405       .  A
C632        C633   1.407       .  A
C632        H641   1.084       .  S
C633        C634   1.410       .  A
C633        H642   1.081       .  S
C634        C637   1.490       .  S
C634        C635   1.403       .  A
C635        C636   1.393       .  A
C635        H643   1.084       .  S
C636        H644   1.083       .  S
C637        H645   1.087       .  S
C637        C638   1.349       .  D
C638        H646   1.084       .  S
C639        H647   1.086       .  S
C639        C640   1.345       .  D
C640        H648   1.086       .  S
C649        C657   1.490       .  S
C649        C650   1.405       .  A
C649        C654   1.407       .  A
C650       C1533   1.400       .  A
C650        H659   1.084       .  S
C651        C652   1.406       .  A
C651       C1532   1.399   1_554  A
C651        H660   1.080       .  S
C652        C655   1.489       .  S
C652        C653   1.405       .  A
C653       C1536   1.398       .  A
C653        H661   1.084       .  S
C654       C1535   1.400       .  A
C654        H662   1.081       .  S
C655        H663   1.088       .  S
C655        C656   1.350       .  D
C656        H664   1.083       .  S
C657        H665   1.087       .  S
C657        C658   1.349       .  D
C658        H666   1.084       .  S
C667        C675   1.488       .  S
C667        C668   1.405       .  A
C667        C672   1.407       .  A
C668        C669   1.399       .  A
C668        H677   1.083       .  S
C669        C670   1.407       .  A
C669        H678   1.081       .  S
C670        C673   1.488       .  S
C670        C671   1.404       .  A
C671        C672   1.397       .  A
C671        H679   1.083       .  S
C672        H680   1.081       .  S
C673        H681   1.087       .  S
C673        C674   1.348       .  D
C674        H682   1.083       .  S
C675        H683   1.087       .  S
C675        C676   1.348       .  D
C676        H684   1.083       .  S
C685        C693   1.496       .  S
C685        C686   1.405       .  A
C685        C690   1.411       .  A
C686        C687   1.397       .  A
C686        H695   1.083       .  S
C687        C688   1.405       .  A
C687        H696   1.083       .  S
C688        C691   1.490       .  S
C688        C689   1.404       .  A
C689        C690   1.405       .  A
C689        H697   1.083       .  S
C690        H698   1.080       .  S
C691        H699   1.086       .  S
C691        C692   1.345       .  D
C692        H700   1.086       .  S
C693        H701   1.087       .  S
C693        C694   1.351       .  D
C694        H702   1.083       .  S
C703        C711   1.490       .  S
C703        C704   1.403       .  A
C703        C708   1.410       .  A
C704        C705   1.392       .  A
C704        H713   1.083       .  S
C705        C706   1.403   1_545  A
C705        H714   1.083       .  S
C706        C709   1.489       .  S
C706        C707   1.406       .  A
C707        C708   1.408   1_565  A
C707        H715   1.082       .  S
C708        H716   1.082       .  S
C709        H717   1.086       .  S
C709        C710   1.346       .  D
C710        H718   1.086       .  S
C711        H719   1.087       .  S
C711        C712   1.349       .  D
C712        H720   1.084       .  S
C721        C729   1.496       .  S
C721        C722   1.403       .  A
C721        C726   1.412       .  A
C722        C723   1.399       .  A
C722        H731   1.083       .  S
C723        C724   1.409       .  A
C723        H732   1.082       .  S
C724        C727   1.494       .  S
C724        C725   1.403       .  A
C725        C726   1.403       .  A
C725        H733   1.083       .  S
C726        H734   1.081       .  S
C727        H735   1.086       .  S
C727        C728   1.345       .  D
C728        H736   1.085       .  S
C729        H737   1.087       .  S
C729        C730   1.345       .  D
C730        H738   1.083       .  S
C739        C747   1.487       .  S
C739        C740   1.402       .  A
C739        C744   1.409       .  A
C740        C741   1.398       .  A
C740        H749   1.083       .  S
C741        C742   1.408       .  A
C741        H750   1.082       .  S
C742        C745   1.483       .  S
C742        C743   1.400       .  A
C743        C744   1.397       .  A
C743        H751   1.083       .  S
C744        H752   1.081       .  S
C745        H753   1.086       .  S
C745        C746   1.341       .  D
C746        H754   1.085       .  S
C747        H755   1.086       .  S
C747        C748   1.343       .  D
C748        H756   1.084       .  S
C757        C765   1.488       .  S
C757        C758   1.403       .  A
C757        C762   1.410       .  A
C758        C759   1.394       .  A
C758        H767   1.084       .  S
C759        C760   1.405       .  A
C759        H768   1.083   1_554  S
C760       C1645   1.486   1_554  S
C760        C761   1.404       .  A
C761        C762   1.403       .  A
C761       H1651   1.084       .  S
C762        H770   1.080       .  S
C763       C1642   1.486       .  S
C763        H771   1.087       .  S
C763       C1646   1.344       .  D
C764        C910   1.470       .  S
C764        H772   1.087   1_556  S
C764       C1645   1.343       .  D
C765        H773   1.088       .  S
C765        C766   1.348       .  D
C766        H774   1.084       .  S
H769       C1643   1.084       .  S
C775        C783   1.492       .  S
C775        C776   1.406       .  A
C775        C780   1.407       .  A
C776        C777   1.402       .  A
C776        H785   1.083       .  S
C777        C778   1.407       .  A
C777       H1668   1.082       .  S
C778        C781   1.490       .  S
C778        C779   1.405       .  A
C779        C780   1.402       .  A
C779        H787   1.083       .  S
C780        H788   1.082       .  S
C781        H789   1.087       .  S
C781       C1664   1.348       .  D
C782        H790   1.085       .  S
C782       C1663   1.350   1_554  D
C783        H791   1.087       .  S
C783        C784   1.350       .  D
C784        H792   1.085       .  S
H786       C1659   1.081   1_554  S
C793        C801   1.487       .  S
C793        C794   1.403       .  A
C793        C798   1.409       .  A
C794        C795   1.393       .  A
C794        H803   1.083       .  S
C795        C796   1.405       .  A
C795        H804   1.083       .  S
C796        C799   1.485   1_455  S
C796        C797   1.404       .  A
C797        C798   1.404       .  A
C797        H805   1.083       .  S
C798        H806   1.081       .  S
C799        H807   1.086       .  S
C799        C800   1.343       .  D
C800        H808   1.087       .  S
C801        H809   1.087       .  S
C801        C802   1.349       .  D
C802        H810   1.083       .  S
C811        C819   1.490       .  S
C811        C812   1.406       .  A
C811        C816   1.406       .  A
C812        C813   1.406       .  A
C812        H821   1.083       .  S
C813        C814   1.409       .  A
C813        H822   1.081       .  S
C814        C817   1.490       .  S
C814        C815   1.404       .  A
C815        C816   1.396       .  A
C815        H823   1.083       .  S
C816        H824   1.083       .  S
C817        H825   1.088       .  S
C817        C818   1.350       .  D
C818        H826   1.085       .  S
C819        H827   1.087       .  S
C819        C820   1.346       .  D
C820        H828   1.086       .  S
C829        C837   1.491       .  S
C829        C830   1.406       .  A
C829        C834   1.406       .  A
C830        C831   1.403       .  A
C830        H839   1.083       .  S
C831        C832   1.407       .  A
C831        H840   1.082       .  S
C832        C835   1.491       .  S
C832        C833   1.405       .  A
C833        C834   1.400       .  A
C833        H841   1.083       .  S
C834        H842   1.081       .  S
C835        H843   1.087       .  S
C835        C836   1.350       .  D
C836        H844   1.085       .  S
C837        H845   1.087       .  S
C837        C838   1.350       .  D
C838        H846   1.085       .  S
C847        C855   1.494       .  S
C847        C848   1.408       .  A
C847        C852   1.407       .  A
C848        C849   1.402       .  A
C848        H857   1.082       .  S
C849        C850   1.408       .  A
C849        H858   1.081       .  S
C850        C853   1.495       .  S
C850        C851   1.406       .  A
C851        C852   1.399       .  A
C851        H859   1.083       .  S
C852        H860   1.080       .  S
C853        H861   1.087       .  S
C853        C854   1.351       .  D
C854        H862   1.082       .  S
C855        H863   1.086       .  S
C855        C856   1.352       .  D
C856        H864   1.081       .  S
C865        C873   1.492       .  S
C865        C866   1.404       .  A
C865        C870   1.410       .  A
C866        C867   1.399       .  A
C866        H875   1.082       .  S
C867        C868   1.407       .  A
C867        H876   1.082       .  S
C868        C871   1.490       .  S
C868        C869   1.403       .  A
C869        C870   1.402       .  A
C869        H877   1.082       .  S
C870        H878   1.081       .  S
C871        H879   1.087       .  S
C871        C872   1.345       .  D
C872        C899   1.476       .  S
C872        H880   1.086       .  S
C873        H881   1.087       .  S
C873        C874   1.346       .  D
C874        H882   1.084       .  S
O883        C886   1.271       .  A
O883       Cd888   2.487       .  S
C884        O893   1.264       .  A
C884        O889   1.270       .  A
C884       C1700   1.482       .  S
O885        C891   1.269       .  A
O885       Cd888   2.489       .  S
C886        O894   1.265       .  A
C886       C1756   1.478       .  S
C887        O892   1.270       .  A
C887        O890   1.266       .  A
C887       C1736   1.480       .  S
Cd888       O895   2.431       .  S
Cd888       O894   2.443       .  S
Cd888       O893   2.414       .  S
Cd888       O889   2.515       .  S
Cd888       O892   2.495       .  S
Cd888       O890   2.427       .  S
C891        O895   1.265       .  A
C891       C1720   1.477       .  S
O896        C899   1.271       .  A
O896       Cd901   2.498       .  S
C897        O906   1.265       .  A
C897        O902   1.269       .  A
C897       C1684   1.481       .  S
O898        C904   1.270       .  A
O898       Cd901   2.497       .  S
C899        O907   1.264       .  A
C900        O905   1.268       .  A
C900        O903   1.266       .  A
C900       C1664   1.482       .  S
Cd901       O908   2.426       .  S
Cd901       O907   2.434       .  S
Cd901       O906   2.438       .  S
Cd901       O902   2.502       .  S
Cd901       O905   2.491       .  S
Cd901       O903   2.465       .  S
C904        O908   1.264       .  A
C904       C1738   1.478       .  S
O909        C912   1.274       .  A
O909       Cd914   2.493       .  S
C910        O919   1.265       .  A
C910        O915   1.274       .  A
O911        C917   1.273       .  A
O911       Cd914   2.501       .  S
C912        O920   1.265       .  A
C912       C1630   1.474       .  S
C913       C1612   1.478       .  S
Cd914       O921   2.425       .  S
Cd914       O920   2.408       .  S
Cd914       O919   2.396       .  S
Cd914       O915   2.500       .  S
Cd914       O918   2.511   1_556  S
Cd914       O916   2.418       .  S
C917        O921   1.268       .  A
C917       C1718   1.483       .  S
O922        C925   1.273       .  A
O922       Cd927   2.474       .  S
C923        O932   1.267       .  A
C923        O928   1.273       .  A
C923       C1594   1.480       .  S
O924        C930   1.275       .  A
O924       Cd927   2.508       .  S
C925        O933   1.266       .  A
C925       C1628   1.475       .  S
C926        O931   1.274       .  A
C926        O929   1.264       .  A
C926       C1574   1.478       .  S
Cd927       O934   2.405       .  S
Cd927       O933   2.426       .  S
Cd927       O932   2.401       .  S
Cd927       O928   2.490       .  S
Cd927       O931   2.528       .  S
Cd927       O929   2.408       .  S
C930        O934   1.264       .  A
C930       C1610   1.474       .  S
O935        C938   1.267       .  A
O935       Cd940   2.510       .  S
C936        O945   1.266       .  A
C936        O941   1.268       .  A
C936       C1540   1.477       .  S
O937        C943   1.266       .  A
O937       Cd940   2.497       .  S
C938        O946   1.264       .  A
C938       C1520   1.483       .  S
C939        O944   1.267       .  A
C939        O942   1.265       .  A
C939       C1556   1.476       .  S
Cd940       O947   2.456       .  S
Cd940       O946   2.439       .  S
Cd940       O945   2.440       .  S
Cd940       O941   2.480       .  S
Cd940       O944   2.473       .  S
Cd940       O942   2.458       .  S
C943        O947   1.264       .  A
C943       C1504   1.479       .  S
O948        C951   1.271       .  A
O948       Cd953   2.493       .  S
C949        O958   1.263       .  A
C949        O954   1.271       .  A
C949       C1702   1.477       .  S
O950        C956   1.269       .  A
O950       Cd953   2.484       .  S
C951        O959   1.265       .  A
C951       C1538   1.480       .  S
C952        O957   1.268       .  A
C952        O955   1.266       .  A
C952       C1558   1.475       .  S
Cd953       O960   2.434       .  S
Cd953       O959   2.435       .  S
Cd953       O958   2.423       .  S
Cd953       O954   2.524       .  S
Cd953       O957   2.474       .  S
Cd953       O955   2.433       .  S
C956        O960   1.267       .  A
C956       C1648   1.479       .  S
O961        C964   1.272       .  A
O961       Cd966   2.509       .  S
C962       C1448   1.480       .  S
O963        C969   1.270       .  A
O963       Cd966   2.501       .  S
C964        O972   1.263       .  A
C964       C1486   1.473       .  S
C965        O970   1.271       .  A
C965        O968   1.267       .  A
Cd966       O973   2.428       .  S
Cd966       O972   2.418       .  S
Cd966       O971   2.424       .  S
Cd966       O967   2.496       .  S
Cd966       O970   2.478       .  S
Cd966       O968   2.436       .  S
C969        O973   1.265       .  A
C969       C1466   1.481       .  S
O974        C977   1.273       .  A
O974       Cd979   2.513       .  S
C975        O984   1.263       .  A
C975        O980   1.272       .  A
C975       C1522   1.474       .  S
O976        C982   1.270       .  A
O976       Cd979   2.490       .  S
C977        O985   1.264       .  A
C977       C1450   1.476       .  S
C978        O983   1.270       .  A
C978        O981   1.268       .  A
C978       C1412   1.482       .  S
Cd979       O986   2.437       .  S
Cd979       O985   2.412       .  S
Cd979       O984   2.415       .  S
Cd979       O980   2.515       .  S
Cd979       O983   2.488       .  S
Cd979       O981   2.453       .  S
C982        O986   1.265       .  A
C982       C1468   1.480       .  S
O987        C990   1.273       .  A
O987       Cd992   2.476       .  S
C988        O997   1.267       .  A
C988        O993   1.271       .  A
C988       C1360   1.476       .  S
O989        C995   1.275       .  A
O989       Cd992   2.498       .  S
C990        O998   1.266       .  A
C990       C1394   1.470       .  S
C991        O996   1.274       .  A
C991        O994   1.265       .  A
C991       C1342   1.475       .  S
Cd992       O999   2.396       .  S
Cd992       O998   2.413       .  S
Cd992       O997   2.418       .  S
Cd992       O993   2.472       .  S
Cd992       O996   2.514       .  S
Cd992       O994   2.401       .  S
C995        O999   1.265       .  A
C995       C1376   1.473       .  S
O1000      C1003   1.269       .  A
O1000     Cd1005   2.503       .  S
C1001      O1010   1.268       .  A
C1001      O1006   1.269       .  A
C1001      C1358   1.480       .  S
O1002      C1008   1.268       .  A
O1002     Cd1005   2.508       .  S
C1003      O1011   1.263       .  A
C1003      C1502   1.479       .  S
C1004      O1009   1.272       .  A
C1004      O1007   1.264       .  A
Cd1005     O1012   2.441       .  S
Cd1005     O1011   2.430       .  S
Cd1005     O1010   2.459       .  S
Cd1005     O1006   2.478       .  S
Cd1005     O1009   2.488       .  S
Cd1005     O1007   2.430       .  S
C1008      O1012   1.264       .  A
C1008      C1414   1.481       .  S
O1013      C1016   1.270       .  A
O1013     Cd1018   2.490       .  S
C1014      O1023   1.264   1_655  A
C1014      O1019   1.269       .  A
C1014      C1286   1.482       .  S
O1015      C1021   1.269       .  A
O1015     Cd1018   2.500       .  S
C1016      O1024   1.264       .  A
C1016      C1304   1.474       .  S
C1017      O1022   1.268       .  A
C1017      O1020   1.265       .  A
C1017      C1666   1.482       .  S
Cd1018     O1025   2.455       .  S
Cd1018     O1024   2.429       .  S
Cd1018     O1023   2.409       .  S
Cd1018     O1019   2.514   1_455  S
Cd1018     O1022   2.495       .  S
Cd1018     O1020   2.462       .  S
C1021      O1025   1.265       .  A
C1021      C1324   1.483       .  S
O1026      C1029   1.273   1_455  A
O1026     Cd1031   2.498   1_455  S
C1027      O1036   1.265   1_455  A
C1027      O1032   1.275       .  A
C1027      C1268   1.474       .  S
O1028      C1034   1.275       .  A
O1028     Cd1031   2.519       .  S
C1029      O1037   1.265       .  A
C1029      C1306   1.475       .  S
C1030      O1035   1.273       .  A
C1030      O1033   1.266   1_655  A
C1030      C1322   1.482       .  S
Cd1031     O1038   2.411       .  S
Cd1031     O1037   2.417       .  S
Cd1031     O1036   2.405       .  S
Cd1031     O1032   2.502   1_655  S
Cd1031     O1035   2.490       .  S
Cd1031     O1033   2.436   1_655  S
C1034      O1038   1.266       .  A
C1034      C1430   1.478       .  S
O1039      C1042   1.269       .  A
O1039     Cd1044   2.488       .  S
C1040      O1049   1.264       .  A
C1040      O1045   1.271       .  A
C1040      C1288   1.470       .  S
O1041      C1047   1.264       .  A
O1041     Cd1044   2.417       .  S
C1042      O1050   1.265       .  A
C1042      C1234   1.478       .  S
C1043      O1048   1.272       .  A
C1043      O1046   1.263       .  A
C1043      C1682   1.469       .  S
Cd1044     O1051   2.493       .  S
Cd1044     O1050   2.428       .  S
Cd1044     O1049   2.415       .  S
Cd1044     O1045   2.494       .  S
Cd1044     O1048   2.500       .  S
Cd1044     O1046   2.401       .  S
C1047      O1051   1.269       .  A
C1047      C1250   1.476       .  S
O1052     Cd1057   2.469   1_554  S
C1053      O1062   1.265       .  A
C1053      O1058   1.267       .  A
C1053      C1396   1.477       .  S
O1054      C1060   1.267       .  A
O1054     Cd1057   2.480       .  S
C1055      C1232   1.476       .  S
C1056      O1061   1.267       .  A
C1056      O1059   1.265       .  A
C1056      C1252   1.475       .  S
Cd1057     O1064   2.435       .  S
Cd1057     O1063   2.446   1_556  S
Cd1057     O1062   2.429       .  S
Cd1057     O1058   2.489       .  S
Cd1057     O1061   2.480       .  S
Cd1057     O1059   2.429       .  S
C1060      O1064   1.265       .  A
O1065      C1068   1.268       .  A
O1065     Cd1070   2.492   1_565  S
C1066      O1075   1.266       .  A
C1066      O1071   1.268   1_545  A
C1066      C1198   1.480   1_545  S
O1067      C1073   1.269       .  A
O1067     Cd1070   2.506       .  S
C1068      O1076   1.266   1_565  A
C1068      C1160   1.481       .  S
C1069      O1074   1.269       .  A
C1069      O1072   1.264   1_545  A
C1069      C1178   1.479       .  S
Cd1070     O1077   2.464       .  S
Cd1070     O1076   2.454       .  S
Cd1070     O1075   2.456       .  S
Cd1070     O1071   2.485   1_545  S
Cd1070     O1074   2.487       .  S
Cd1070     O1072   2.450   1_545  S
C1073      O1077   1.266       .  A
C1073      C1576   1.487       .  S
O1078      C1081   1.269       .  A
O1078     Cd1083   2.503   1_545  S
C1079      O1088   1.263       .  A
C1079      O1084   1.269       .  A
C1079      C1214   1.476       .  S
O1080      C1086   1.269       .  A
O1080     Cd1083   2.516       .  S
C1081      O1089   1.265   1_545  A
C1081      C1196   1.483       .  S
C1082      O1087   1.268       .  A
C1082      O1085   1.265   1_565  A
C1082      C1180   1.482       .  S
Cd1083     O1090   2.443       .  S
Cd1083     O1089   2.454       .  S
Cd1083     O1088   2.440   1_565  S
Cd1083     O1084   2.515   1_565  S
Cd1083     O1087   2.492       .  S
Cd1083     O1085   2.465   1_565  S
C1086      O1090   1.267       .  A
C1086      C1340   1.487       .  S
O1091      C1094   1.267       .  A
O1091     Cd1096   2.481       .  S
C1092      O1101   1.265       .  A
C1092      O1097   1.267       .  A
C1092      C1484   1.479       .  S
O1093      C1099   1.267       .  A
O1093     Cd1096   2.497       .  S
C1094      O1102   1.265       .  A
C1094      C1126   1.476       .  S
C1095      O1100   1.267       .  A
C1095      O1098   1.266       .  A
C1095      C1142   1.478       .  S
Cd1096     O1103   2.449       .  S
Cd1096     O1102   2.445       .  S
Cd1096     O1101   2.446       .  S
Cd1096     O1097   2.489       .  S
Cd1096     O1100   2.476       .  S
Cd1096     O1098   2.461       .  S
C1099      O1103   1.265       .  A
C1099      C1270   1.481       .  S
O1104      C1107   1.270       .  A
O1104     Cd1109   2.498       .  S
C1105      O1114   1.265       .  A
C1105      O1110   1.273       .  A
C1105      C1162   1.476       .  S
O1106      C1112   1.270       .  A
O1106     Cd1109   2.471       .  S
C1107      O1115   1.264       .  A
C1107      C1124   1.479       .  S
C1108      O1113   1.270       .  A
C1108      O1111   1.263       .  A
C1108      C1592   1.469       .  S
Cd1109     O1116   2.441       .  S
Cd1109     O1115   2.423       .  S
Cd1109     O1114   2.425       .  S
Cd1109     O1110   2.498       .  S
Cd1109     O1113   2.500       .  S
Cd1109     O1111   2.417       .  S
C1112      O1116   1.267       .  A
C1117      C1125   1.489       .  S
C1117      C1118   1.405       .  A
C1117      C1122   1.406       .  A
C1118      C1119   1.399       .  A
C1118      H1127   1.083       .  S
C1119      C1120   1.407       .  A
C1119      H1128   1.080       .  S
C1120      C1123   1.491       .  S
C1120      C1121   1.406       .  A
C1121      C1122   1.398       .  A
C1121      H1129   1.083       .  S
C1122      H1130   1.080       .  S
C1123      H1131   1.087       .  S
C1123      C1124   1.351       .  D
C1124      H1132   1.082       .  S
C1125      H1133   1.087       .  S
C1125      C1126   1.349       .  D
C1126      H1134   1.083       .  S
C1135      C1143   1.489       .  S
C1135      C1136   1.404       .  A
C1135      C1140   1.407       .  A
C1136      C1137   1.400       .  A
C1136      H1145   1.083       .  S
C1137      C1138   1.409       .  A
C1137      H1146   1.080       .  S
C1138      C1141   1.493       .  S
C1138      C1139   1.405       .  A
C1139      C1140   1.399       .  A
C1139      H1147   1.083       .  S
C1140      H1148   1.081       .  S
C1141      H1149   1.087       .  S
C1141      C1142   1.349       .  D
C1142      H1150   1.082       .  S
C1143      H1151   1.087       .  S
C1143      C1144   1.348       .  D
C1144      H1152   1.084       .  S
C1153      C1154   1.404       .  A
C1153      C1158   1.406       .  A
C1154      C1155   1.404       .  A
C1154      H1163   1.083       .  S
C1155      C1156   1.409       .  A
C1155      H1164   1.082       .  S
C1156      C1159   1.488       .  S
C1156      C1157   1.403       .  A
C1157      C1158   1.396       .  A
C1157      H1165   1.084       .  S
C1158      H1166   1.083       .  S
C1159      H1167   1.087       .  S
C1159      C1160   1.348       .  D
C1160      H1168   1.085       .  S
C1161      H1169   1.086       .  S
C1161      C1162   1.345       .  D
C1171      C1179   1.494       .  S
C1171      C1176   1.407   1_545  A
C1172      C1173   1.400   1_554  A
C1172      H1181   1.082       .  S
C1173      C1174   1.406       .  A
C1173      H1182   1.082       .  S
C1174      C1177   1.489       .  S
C1175      C1176   1.401       .  A
C1175      H1183   1.082       .  S
C1176      H1184   1.081       .  S
C1177      H1185   1.086   1_545  S
C1177      C1178   1.349       .  D
C1178      H1186   1.083       .  S
C1179      H1187   1.086       .  S
C1179      C1180   1.350   1_545  D
C1180      H1188   1.083       .  S
C1189      C1197   1.495       .  S
C1189      C1190   1.406       .  A
C1189      C1194   1.408   1_545  A
C1190      C1191   1.401       .  A
C1190      H1199   1.083       .  S
C1191      C1192   1.408       .  A
C1191      H1200   1.080       .  S
C1192      C1195   1.495       .  S
C1192      C1193   1.406   1_545  A
C1193      C1194   1.400       .  A
C1193      H1201   1.083       .  S
C1194      H1202   1.079       .  S
C1195      H1203   1.087   1_545  S
C1195      C1196   1.351       .  D
C1196      H1204   1.083       .  S
C1197      H1205   1.087       .  S
C1197      C1198   1.351   1_545  D
C1198      H1206   1.082       .  S
C1207      C1215   1.487       .  S
C1207      C1208   1.402       .  A
C1207      C1212   1.408       .  A
C1208      C1209   1.395       .  A
C1208      H1217   1.083       .  S
C1209      C1210   1.407       .  A
C1209      H1218   1.082       .  S
C1210      C1213   1.491       .  S
C1210      C1211   1.406       .  A
C1211      C1212   1.404       .  A
C1211      H1219   1.083       .  S
C1212      H1220   1.082       .  S
C1213      H1221   1.086       .  S
C1213      C1214   1.347       .  D
C1214      H1222   1.085       .  S
C1215      H1223   1.087       .  S
C1215      C1216   1.347       .  D
C1225      C1233   1.487       .  S
C1225      C1226   1.403       .  A
C1225      C1230   1.407       .  A
C1226      C1227   1.396       .  A
C1226      H1235   1.084       .  S
C1227      C1228   1.407       .  A
C1227      H1236   1.079       .  S
C1228      C1231   1.490       .  S
C1228      C1229   1.406       .  A
C1229      C1230   1.400       .  A
C1229      H1237   1.084       .  S
C1230      H1238   1.080       .  S
C1231      H1239   1.087       .  S
C1231      C1232   1.349       .  D
C1232      H1240   1.083       .  S
C1233      H1241   1.088       .  S
C1233      C1234   1.348       .  D
C1234      H1242   1.084       .  S
C1243      C1251   1.486       .  S
C1243      C1244   1.404       .  A
C1243      C1248   1.407       .  A
C1244      C1245   1.397       .  A
C1244      H1253   1.084       .  S
C1245      C1246   1.407       .  A
C1245      H1254   1.079       .  S
C1246      C1249   1.487       .  S
C1246      C1247   1.405       .  A
C1247      C1248   1.397       .  A
C1247      H1255   1.084       .  S
C1248      H1256   1.080       .  S
C1249      H1257   1.088       .  S
C1249      C1250   1.349       .  D
C1250      H1258   1.083       .  S
C1251      H1259   1.088       .  S
C1251      C1252   1.347       .  D
C1252      H1260   1.084       .  S
C1261      C1269   1.492       .  S
C1261      C1262   1.405       .  A
C1261      C1266   1.410       .  A
C1262      C1263   1.397       .  A
C1262      H1271   1.084       .  S
C1263      C1264   1.406       .  A
C1263      H1272   1.082       .  S
C1264      C1267   1.487       .  S
C1264      C1265   1.403       .  A
C1265      C1266   1.403       .  A
C1265      H1273   1.084       .  S
C1266      H1274   1.080       .  S
C1267      H1275   1.087       .  S
C1267      C1268   1.343       .  D
C1268      H1276   1.087       .  S
C1269      H1277   1.087       .  S
C1269      C1270   1.349       .  D
C1270      H1278   1.083       .  S
C1279      C1287   1.484       .  S
C1279      C1280   1.405       .  A
C1279      C1284   1.403       .  A
C1280      C1281   1.406       .  A
C1280      H1289   1.082       .  S
C1281      C1282   1.409       .  A
C1281      H1290   1.081       .  S
C1282      C1285   1.486       .  S
C1282      C1283   1.404       .  A
C1283      C1284   1.391       .  A
C1283      H1291   1.083       .  S
C1284      H1292   1.084       .  S
C1285      H1293   1.087       .  S
C1285      C1286   1.348       .  D
C1286      H1294   1.084       .  S
C1287      H1295   1.086       .  S
C1287      C1288   1.344       .  D
C1288      H1296   1.087       .  S
C1297      C1305   1.490       .  S
C1297      C1302   1.408   1_455  A
C1298      C1299   1.399       .  A
C1298      H1307   1.083       .  S
C1299      C1300   1.410   1_554  A
C1299      H1308   1.080   1_554  S
C1300      C1303   1.492       .  S
C1301      C1302   1.398       .  A
C1301      H1309   1.082       .  S
C1302      H1310   1.082       .  S
C1303      H1311   1.087   1_455  S
C1303      C1304   1.345       .  D
C1304      H1312   1.083       .  S
C1305      H1313   1.086       .  S
C1305      C1306   1.344   1_455  D
C1306      H1314   1.085       .  S
C1315      C1323   1.494       .  S
C1315      C1316   1.406   1_455  A
C1315      C1320   1.408       .  A
C1316      C1317   1.400       .  A
C1316      H1325   1.084       .  S
C1317      C1318   1.407   1_655  A
C1317      H1326   1.080       .  S
C1318      C1321   1.494       .  S
C1318      C1319   1.407       .  A
C1319      C1320   1.401       .  A
C1319      H1327   1.084       .  S
C1320      H1328   1.080       .  S
C1321      H1329   1.087       .  S
C1321      C1322   1.352   1_455  D
C1322      H1330   1.083       .  S
C1323      H1331   1.087   1_455  S
C1323      C1324   1.351       .  D
C1324      H1332   1.083       .  S
C1333      C1341   1.490       .  S
C1333      C1334   1.406       .  A
C1333      C1338   1.404       .  A
C1334      C1335   1.409       .  A
C1334      H1343   1.083       .  S
C1335      C1336   1.411       .  A
C1335      H1344   1.081       .  S
C1336      C1339   1.493       .  S
C1336      C1337   1.404       .  A
C1337      C1338   1.392       .  A
C1337      H1345   1.083       .  S
C1338      H1346   1.083       .  S
C1339      H1347   1.087       .  S
C1339      C1340   1.349       .  D
C1340      H1348   1.084       .  S
C1341      H1349   1.086       .  S
C1341      C1342   1.345       .  D
C1342      H1350   1.087       .  S
C1351      C1359   1.487       .  S
C1351      C1352   1.405       .  A
C1351      C1356   1.406       .  A
C1352      C1353   1.400       .  A
C1352      H1361   1.084       .  S
C1353      C1354   1.408       .  A
C1353      H1362   1.081       .  S
C1354      C1357   1.491       .  S
C1354      C1355   1.405       .  A
C1355      C1356   1.399       .  A
C1355      H1363   1.084       .  S
C1356      H1364   1.081       .  S
C1357      H1365   1.087       .  S
C1357      C1358   1.349       .  D
C1358      H1366   1.084       .  S
C1359      H1367   1.088       .  S
C1359      C1360   1.348       .  D
C1360      H1368   1.084       .  S
C1369      C1377   1.490       .  S
C1369      C1370   1.401       .  A
C1369      C1374   1.411       .  A
C1370      C1371   1.396       .  A
C1370      H1379   1.083       .  S
C1371      C1372   1.409       .  A
C1371      H1380   1.082       .  S
C1372      C1375   1.492       .  S
C1372      C1373   1.404       .  A
C1373      C1374   1.403       .  A
C1373      H1381   1.083       .  S
C1374      H1382   1.081       .  S
C1375      H1383   1.087       .  S
C1375      C1376   1.344       .  D
C1376      H1384   1.085       .  S
C1377      H1385   1.087       .  S
C1377      C1378   1.343       .  D
C1378      H1386   1.084       .  S
C1387      C1395   1.483       .  S
C1387      C1388   1.402       .  A
C1387      C1392   1.409       .  A
C1388      C1389   1.393       .  A
C1388      H1397   1.084       .  S
C1389      C1390   1.405   1_545  A
C1389      H1398   1.082       .  S
C1390      C1393   1.482       .  S
C1390      C1391   1.403   1_565  A
C1391      C1392   1.402       .  A
C1391      H1399   1.084       .  S
C1392      H1400   1.081       .  S
C1393      H1401   1.087       .  S
C1393      C1394   1.342       .  D
C1394      H1402   1.087       .  S
C1395      H1403   1.087       .  S
C1395      C1396   1.345       .  D
C1396      H1404   1.085       .  S
C1405      C1413   1.488       .  S
C1405      C1406   1.405       .  A
C1405      C1410   1.406       .  A
C1406      C1407   1.400       .  A
C1406      H1415   1.083       .  S
C1407      C1408   1.407       .  A
C1407      H1416   1.082       .  S
C1408      C1411   1.490       .  S
C1408      C1409   1.405       .  A
C1409      C1410   1.401       .  A
C1409      H1417   1.083       .  S
C1410      H1418   1.082       .  S
C1411      H1419   1.087       .  S
C1411      C1412   1.349       .  D
C1412      H1420   1.085       .  S
C1413      H1421   1.087       .  S
C1413      C1414   1.349       .  D
C1414      H1422   1.085       .  S
C1423      C1431   1.495       .  S
C1423      C1424   1.405       .  A
C1423      C1428   1.411       .  A
C1424      C1425   1.397       .  A
C1424      H1433   1.083       .  S
C1425      C1426   1.405       .  A
C1425      H1434   1.083       .  S
C1426      C1429   1.491       .  S
C1426      C1427   1.405       .  A
C1427      C1428   1.407       .  A
C1427      H1435   1.083       .  S
C1428      H1436   1.080       .  S
C1429      H1437   1.086       .  S
C1429      C1430   1.346       .  D
C1430      H1438   1.087       .  S
C1431      H1439   1.087       .  S
C1431      C1432   1.351       .  D
C1432      H1440   1.083       .  S
C1441      C1449   1.494       .  S
C1441      C1442   1.403       .  A
C1441      C1446   1.410       .  A
C1442      C1443   1.402       .  A
C1442      H1451   1.083       .  S
C1443      C1444   1.412       .  A
C1443      H1452   1.081       .  S
C1444      C1447   1.495       .  S
C1444      C1445   1.402       .  A
C1445      C1446   1.399       .  A
C1445      H1453   1.083       .  S
C1446      H1454   1.081       .  S
C1447      H1455   1.087       .  S
C1447      C1448   1.345       .  D
C1448      H1456   1.084       .  S
C1449      H1457   1.087       .  S
C1449      C1450   1.345       .  D
C1450      H1458   1.085       .  S
C1459      C1467   1.492       .  S
C1459      C1460   1.407       .  A
C1459      C1464   1.406       .  A
C1460      C1461   1.400       .  A
C1460      H1469   1.082       .  S
C1461      C1462   1.406       .  A
C1461      H1470   1.082       .  S
C1462      C1465   1.490       .  S
C1462      C1463   1.406       .  A
C1463      C1464   1.399       .  A
C1463      H1471   1.082       .  S
C1464      H1472   1.082       .  S
C1465      H1473   1.086       .  S
C1465      C1466   1.351       .  D
C1466      H1474   1.083       .  S
C1467      H1475   1.086       .  S
C1467      C1468   1.351       .  D
C1468      H1476   1.083       .  S
C1477      C1485   1.487       .  S
C1477      C1478   1.403       .  A
C1477      C1482   1.405       .  A
C1478      C1479   1.402   1_655  A
C1478      H1487   1.083       .  S
C1479      C1480   1.410       .  A
C1479      H1488   1.080       .  S
C1480      C1483   1.491       .  S
C1480      C1481   1.405       .  A
C1481      C1482   1.397   1_455  A
C1481      H1489   1.084       .  S
C1482      H1490   1.083       .  S
C1483      H1491   1.087       .  S
C1483      C1484   1.348       .  D
C1484      H1492   1.083       .  S
C1485      H1493   1.087       .  S
C1485      C1486   1.343       .  D
C1486      H1494   1.087       .  S
C1495      C1503   1.488       .  S
C1495      C1496   1.405       .  A
C1495      C1500   1.406       .  A
C1496      C1497   1.400       .  A
C1496      H1505   1.083       .  S
C1497      C1498   1.407       .  A
C1498      C1501   1.489       .  S
C1498      C1499   1.406       .  A
C1499      C1500   1.399       .  A
C1499      H1507   1.083       .  S
C1500      H1508   1.081       .  S
C1501      H1509   1.087       .  S
C1502      H1510   1.084       .  S
C1503      H1511   1.087       .  S
C1503      C1504   1.348       .  D
C1504      H1512   1.085       .  S
C1513      C1521   1.490       .  S
C1513      C1514   1.406       .  A
C1513      C1518   1.405       .  A
C1514      C1515   1.406       .  A
C1514      H1523   1.084       .  S
C1515      C1516   1.410       .  A
C1515      H1524   1.081       .  S
C1516      C1519   1.488       .  S
C1516      C1517   1.403       .  A
C1517      C1518   1.393       .  A
C1517      H1525   1.084       .  S
C1518      H1526   1.082       .  S
C1519      H1527   1.087       .  S
C1519      C1520   1.348       .  D
C1520      H1528   1.085       .  S
C1521      H1529   1.086       .  S
C1521      C1522   1.345       .  D
C1522      H1530   1.086       .  S
C1531      C1539   1.491       .  S
C1531      C1532   1.406       .  A
C1531      C1536   1.407   1_556  A
C1532      H1541   1.084       .  S
C1533      C1534   1.408       .  A
C1533      H1542   1.079       .  S
C1534      C1537   1.492       .  S
C1534      C1535   1.406       .  A
C1535      H1543   1.084       .  S
C1536      H1544   1.079   1_554  S
C1537      H1545   1.087       .  S
C1537      C1538   1.351       .  D
C1538      H1546   1.083       .  S
C1539      H1547   1.087       .  S
C1539      C1540   1.349       .  D
C1540      H1548   1.083       .  S
C1549      C1557   1.487       .  S
C1549      C1550   1.404       .  A
C1549      C1554   1.406       .  A
C1550      C1551   1.397       .  A
C1550      H1559   1.083       .  S
C1551      C1552   1.408       .  A
C1551      H1560   1.080       .  S
C1552      C1555   1.490       .  S
C1552      C1553   1.405       .  A
C1553      C1554   1.399       .  A
C1553      H1561   1.083       .  S
C1554      H1562   1.081       .  S
C1555      H1563   1.087       .  S
C1555      C1556   1.348       .  D
C1556      H1564   1.082       .  S
C1557      H1565   1.087       .  S
C1557      C1558   1.347       .  D
C1558      H1566   1.083       .  S
C1567      C1575   1.497       .  S
C1567      C1568   1.405       .  A
C1567      C1572   1.411       .  A
C1568      C1569   1.398       .  A
C1568      H1577   1.083       .  S
C1569      C1570   1.407       .  A
C1569      H1578   1.082       .  S
C1570      C1573   1.497       .  S
C1570      C1571   1.406       .  A
C1571      C1572   1.407       .  A
C1571      H1579   1.083       .  S
C1572      H1580   1.080       .  S
C1573      H1581   1.086       .  S
C1573      C1574   1.347       .  D
C1574      H1582   1.085       .  S
C1575      H1583   1.087       .  S
C1575      C1576   1.351       .  D
C1576      H1584   1.083       .  S
C1585      C1593   1.488       .  S
C1585      C1586   1.404       .  A
C1585      C1590   1.410       .  A
C1586      C1587   1.392       .  A
C1586      H1595   1.083       .  S
C1587      C1588   1.402   1_545  A
C1587      H1596   1.084       .  S
C1588      C1591   1.483       .  S
C1588      C1589   1.404       .  A
C1589      C1590   1.405   1_565  A
C1589      H1597   1.082       .  S
C1590      H1598   1.081       .  S
C1591      H1599   1.086       .  S
C1591      C1592   1.343       .  D
C1592      H1600   1.087       .  S
C1593      H1601   1.087       .  S
C1593      C1594   1.348       .  D
C1594      H1602   1.083       .  S
C1603      C1611   1.491       .  S
C1603      C1604   1.401       .  A
C1603      C1608   1.410       .  A
C1604      C1605   1.398       .  A
C1604      H1613   1.083       .  S
C1605      C1606   1.410       .  A
C1605      H1614   1.082       .  S
C1606      C1609   1.492       .  S
C1606      C1607   1.403       .  A
C1607      C1608   1.402       .  A
C1607      H1615   1.083       .  S
C1608      H1616   1.081       .  S
C1609      H1617   1.087       .  S
C1609      C1610   1.344       .  D
C1610      H1618   1.085       .  S
C1611      H1619   1.087       .  S
C1611      C1612   1.344       .  D
C1612      H1620   1.085       .  S
C1621      C1629   1.494       .  S
C1621      C1622   1.405       .  A
C1621      C1626   1.411       .  A
C1622      C1623   1.401       .  A
C1622      H1631   1.083       .  S
C1623      C1624   1.408       .  A
C1623      H1632   1.082       .  S
C1624      C1627   1.487       .  S
C1624      C1625   1.401       .  A
C1625      C1626   1.397       .  A
C1625      H1633   1.083       .  S
C1626      H1634   1.081       .  S
C1627      H1635   1.086       .  S
C1627      C1628   1.343       .  D
C1628      H1636   1.085       .  S
C1629      H1637   1.087       .  S
C1629      C1630   1.345       .  D
C1630      H1638   1.083       .  S
C1639      C1647   1.487       .  S
C1639      C1640   1.403       .  A
C1639      C1644   1.409       .  A
C1640      C1641   1.395       .  A
C1640      H1649   1.084       .  S
C1641      C1642   1.405       .  A
C1641      H1650   1.083       .  S
C1642      C1643   1.404       .  A
C1643      C1644   1.403       .  A
C1644      H1652   1.081       .  S
C1645      H1653   1.087       .  S
C1646      H1654   1.087       .  S
C1647      H1655   1.088       .  S
C1647      C1648   1.347       .  D
C1648      H1656   1.085       .  S
C1657      C1665   1.490       .  S
C1657      C1658   1.404       .  A
C1657      C1662   1.406       .  A
C1658      C1659   1.401       .  A
C1658      H1667   1.083       .  S
C1659      C1660   1.408       .  A
C1660      C1663   1.493       .  S
C1660      C1661   1.406       .  A
C1661      C1662   1.402       .  A
C1661      H1669   1.083       .  S
C1662      H1670   1.083       .  S
C1663      H1671   1.087       .  S
C1664      H1672   1.085       .  S
C1665      H1673   1.087       .  S
C1665      C1666   1.348       .  D
C1666      H1674   1.085       .  S
C1675      C1683   1.489       .  S
C1675      C1676   1.403       .  A
C1675      C1680   1.410       .  A
C1676      C1677   1.393       .  A
C1676      H1685   1.083       .  S
C1677      C1678   1.405       .  A
C1677      H1686   1.083       .  S
C1678      C1681   1.486   1_455  S
C1678      C1679   1.404       .  A
C1679      C1680   1.404       .  A
C1679      H1687   1.083   1_455  S
C1680      H1688   1.081       .  S
C1681      H1689   1.086       .  S
C1681      C1682   1.343       .  D
C1682      H1690   1.086       .  S
C1683      H1691   1.087       .  S
C1683      C1684   1.348       .  D
C1684      H1692   1.083       .  S
C1693      C1701   1.494       .  S
C1693      C1694   1.407       .  A
C1693      C1698   1.407       .  A
C1694      C1695   1.406       .  A
C1694      H1703   1.083       .  S
C1695      C1696   1.408       .  A
C1695      H1704   1.081       .  S
C1696      C1699   1.488       .  S
C1696      C1697   1.403       .  A
C1697      C1698   1.394       .  A
C1697      H1705   1.084       .  S
C1698      H1706   1.081       .  S
C1699      H1707   1.088       .  S
C1699      C1700   1.349       .  D
C1700      H1708   1.084       .  S
C1701      H1709   1.087       .  S
C1701      C1702   1.347       .  D
C1702      H1710   1.085       .  S
C1711      C1719   1.488       .  S
C1711      C1712   1.406       .  A
C1711      C1716   1.406       .  A
C1712      C1713   1.401       .  A
C1712      H1721   1.083       .  S
C1713      C1714   1.406       .  A
C1713      H1722   1.082       .  S
C1714      C1717   1.488       .  S
C1714      C1715   1.405       .  A
C1715      C1716   1.399       .  A
C1715      H1723   1.083       .  S
C1716      H1724   1.081       .  S
C1717      H1725   1.087       .  S
C1717      C1718   1.350       .  D
C1718      H1726   1.085       .  S
C1719      H1727   1.087       .  S
C1719      C1720   1.349       .  D
C1720      H1728   1.084       .  S
C1729      C1737   1.488       .  S
C1729      C1730   1.407       .  A
C1729      C1734   1.405       .  A
C1730      C1731   1.400       .  A
C1730      H1739   1.082       .  S
C1731      C1732   1.406       .  A
C1731      H1740   1.082       .  S
C1732      C1735   1.488       .  S
C1732      C1733   1.405       .  A
C1733      C1734   1.397       .  A
C1733      H1741   1.083       .  S
C1734      H1742   1.081       .  S
C1735      H1743   1.086       .  S
C1735      C1736   1.349       .  D
C1736      H1744   1.083       .  S
C1737      H1745   1.086       .  S
C1737      C1738   1.351       .  D
C1738      H1746   1.083       .  S
C1747      C1755   1.494       .  S
C1747      C1748   1.403       .  A
C1747      C1752   1.411       .  A
C1748      C1749   1.397       .  A
C1748      H1757   1.083       .  S
C1749      C1750   1.409       .  A
C1749      H1758   1.079       .  S
C1750      C1753   1.494       .  S
C1750      C1751   1.405       .  A
C1751      C1752   1.402       .  A
C1751      H1759   1.082       .  S
C1752      H1760   1.080       .  S
C1753      H1761   1.087       .  S
C1753      C1754   1.346       .  D
C1754      H1762   1.082       .  S
C1755      H1763   1.087       .  S
C1755      C1756   1.345       .  D
C1756      H1764   1.083       .  S
