geometry optimzed in LAMMPS
_audit_creation_date              2020-12-01 
_audit_creation_method            'lammps2cif' 
_symmetry_space_group_name_H-M    'P1' 
_symmetry_Int_Tables_number       1 
_symmetry_cell_setting            triclinic 
loop_ 
_symmetry_equiv_pos_as_xyz 
  x,y,z 
_cell_length_a                    37.42403977 
_cell_length_b                    37.46905820906234 
_cell_length_c                    61.73578202732311 
_cell_angle_alpha                 90.02976491722526 
_cell_angle_beta                  89.95026161329174 
_cell_angle_gamma                 89.96929885763944 
loop_ 
_atom_site_label 
_atom_site_type_symbol 
_atom_site_fract_x 
_atom_site_fract_y 
_atom_site_fract_z 
_atom_site_charge 
O1          O  0.12573733  0.83767380  0.51271116    -0.72000
O2          O  0.03555133  0.83372743  0.54211590    -0.72300
O3          O  0.06156310  0.87015489  0.50825224    -0.72100
O4          O  0.09945738  0.80056547  0.54616250    -0.72100
O5          O  0.11951117  0.84243747  0.56729419    -0.72100
O6          O  0.07517225  0.91208241  0.53109899    -0.72100
O7          O  0.05515035  0.87312649  0.56496739    -0.72000
O8          O  0.14102764  0.88241226  0.53310140    -0.72200
V9          V  0.08097332  0.83631955  0.52768974     1.35200
V10         V  0.09761852  0.87667856  0.54864753     1.35200
C11         C  0.14846976  0.86128936  0.51779288     0.77200
C12         C  0.03016797  0.85298911  0.55873166     0.77300
C13         C  0.05993399  0.90259953  0.51371644     0.77100
C14         C  0.11580854  0.80951876  0.56317023     0.77100
O15         O  0.86316378  0.85346103  0.70027407    -0.72000
O16         O  0.86277859  0.76933045  0.66487949    -0.72300
O17         O  0.89155454  0.83438541  0.66209368    -0.72100
O18         O  0.83507033  0.78722143  0.70369787    -0.72100
O19         O  0.78676231  0.80279603  0.68669549    -0.72100
O20         O  0.84414007  0.85507901  0.64610127    -0.72100
O21         O  0.81643010  0.79020210  0.64786666    -0.72000
O22         O  0.81341087  0.86994676  0.68518743    -0.72200
V23         V  0.86213113  0.81149839  0.68251123     1.35200
V24         V  0.81601700  0.82933992  0.66692147     1.35200
C25         C  0.83795167  0.87594997  0.69873758     0.77200
C26         C  0.84033310  0.76672145  0.64957193     0.77300
C27         C  0.87786777  0.85176235  0.64674141     0.77100
C28         C  0.80156040  0.78538628  0.70188239     0.77100
O29         O  0.11277754  0.57798891  0.70682013    -0.72000
O30         O  0.11064362  0.65857138  0.67006746    -0.72300
O31         O  0.07917366  0.59430931  0.67011800    -0.72100
O32         O  0.14453645  0.64246698  0.70659076    -0.72100
O33         O  0.18879957  0.62048243  0.68812848    -0.72100
O34         O  0.12335808  0.57322784  0.65110377    -0.72100
O35         O  0.15489886  0.63722910  0.65131355    -0.72000
O36         O  0.15710133  0.55582014  0.68844543    -0.72200
V37         V  0.11271129  0.61780147  0.68807235     1.35200
V38         V  0.15524193  0.59692890  0.67017565     1.35200
C39         C  0.13479381  0.55295353  0.70379154     0.77200
C40         C  0.13235403  0.66188724  0.65452016     0.77300
C41         C  0.09011746  0.57650435  0.65405757     0.77100
C42         C  0.17775687  0.64076313  0.70306795     0.77100
O43         O  0.85761928  0.58935777  0.51448979    -0.72000
O44         O  0.94482096  0.58358752  0.54584437    -0.72300
O45         O  0.92116158  0.55567643  0.50880216    -0.72100
O46         O  0.88231814  0.61712380  0.55154349    -0.72100
O47         O  0.86131158  0.57148900  0.56911161    -0.72100
O48         O  0.90166731  0.50976692  0.52671198    -0.72100
O49         O  0.92379346  0.53860626  0.56401476    -0.72000
O50         O  0.83802313  0.54246372  0.53144777    -0.72200
V51         V  0.90093304  0.58552110  0.53042945     1.35200
V52         V  0.88141986  0.54144849  0.54738398     1.35200
C53         C  0.83293555  0.56691296  0.51769210     0.77200
C54         C  0.94883601  0.56046787  0.56056371     0.77300
C55         C  0.91959697  0.52218474  0.51104710     0.77100
C56         C  0.86629693  0.60482587  0.56794927     0.77100
O57         O  0.62206640  0.57074100  0.76651219    -0.72000
O58         O  0.61273022  0.65920088  0.79663020    -0.72300
O59         O  0.64567334  0.63816241  0.76027104    -0.72100
O60         O  0.58870014  0.59268897  0.80269581    -0.72100
O61         O  0.63614563  0.57841457  0.82098048    -0.72100
O62         O  0.69314132  0.62874620  0.77962584    -0.72100
O63         O  0.65877534  0.64517588  0.81624525    -0.72000
O64         O  0.67135753  0.56009647  0.78390014    -0.72200
V65         V  0.61827304  0.61480893  0.78181471     1.35200
V66         V  0.66400977  0.60308080  0.79973155     1.35200
C67         C  0.64859857  0.55052375  0.76992903     0.77200
C68         C  0.63382803  0.66674080  0.81199936     0.77300
C69         C  0.67868314  0.64316854  0.76325384     0.77100
C70         C  0.60236107  0.57903868  0.81945149     0.77100
O71         O  0.36158611  0.58415654  0.95511269    -0.72000
O72         O  0.44095879  0.57539993  0.91655323    -0.72300
O73         O  0.38047560  0.61416376  0.91770253    -0.72100
O74         O  0.42258586  0.54547777  0.95438112    -0.72100
O75         O  0.39671171  0.50284882  0.93648054    -0.72100
O76         O  0.35178073  0.57231535  0.90056932    -0.72100
O77         O  0.41206941  0.53469090  0.89864150    -0.72000
O78         O  0.33509195  0.54060468  0.93837776    -0.72200
V79         V  0.40085993  0.57888707  0.93567531     1.35200
V80         V  0.37437545  0.53833874  0.91896366     1.35200
C81         C  0.33446243  0.56426576  0.95297941     0.77200
C82         C  0.43935559  0.55425030  0.90056073     0.77300
C83         C  0.35924252  0.60501359  0.90287050     0.77100
C84         C  0.41814555  0.51248433  0.95123493     0.77100
O85         O  0.35048993  0.84958671  0.76800068    -0.72000
O86         O  0.35598255  0.76252157  0.79919379    -0.72300
O87         O  0.31855565  0.78521448  0.76526666    -0.72100
O88         O  0.38785336  0.82632402  0.80189286    -0.72100
O89         O  0.34606442  0.84492773  0.82365837    -0.72100
O90         O  0.27637875  0.80267471  0.78701734    -0.72100
O91         O  0.31463159  0.78122380  0.82114778    -0.72000
O92         O  0.30757117  0.86740950  0.78914375    -0.72200
V93         V  0.35233352  0.80637192  0.78396332     1.35200
V94         V  0.31192903  0.82390846  0.80476034     1.35200
C95         C  0.32820383  0.87338392  0.77332018     0.77200
C96         C  0.33643881  0.75712626  0.81559059     0.77300
C97         C  0.28588630  0.78537311  0.77038982     0.77100
C98         C  0.37889361  0.84180985  0.81920668     0.77100
O99         O  0.62594846  0.84569937  0.95338582    -0.72000
O100        O  0.53772590  0.83691397  0.92303240    -0.72300
O101        O  0.60282377  0.80722449  0.91960786    -0.72100
O102        O  0.55996325  0.87498836  0.95684486    -0.72100
O103        O  0.57548600  0.91771669  0.93504025    -0.72100
O104        O  0.61904244  0.84963641  0.89767145    -0.72100
O105        O  0.55475109  0.87907830  0.90121276    -0.72000
O106        O  0.64138143  0.88904835  0.93195962    -0.72200
V107        V  0.58209764  0.84205786  0.93787063     1.35200
V108        V  0.59759793  0.88304437  0.91697851     1.35200
C109        C  0.64864434  0.86899505  0.94779142     0.77200
C110        C  0.53141133  0.85663605  0.90683527     0.77300
C111        C  0.61699917  0.81669640  0.90197820     0.77100
C112        C  0.55851745  0.90756337  0.95166931     0.77100
O113        O  0.62861373  0.34087154  0.01498619    -0.72000
O114        O  0.54289510  0.33028227  0.04792079    -0.72300
O115        O  0.56218908  0.36973356  0.01390359    -0.72100
O116        O  0.60853668  0.30097802  0.04885187    -0.72100
O117        O  0.62675252  0.34267126  0.07068347    -0.72100
O118        O  0.57883850  0.41173399  0.03592951    -0.72100
O119        O  0.56163373  0.37140278  0.06994670    -0.72000
O120        O  0.64523683  0.38393899  0.03631438    -0.72200
V121        V  0.58604829  0.33631176  0.03177145     1.35200
V122        V  0.60297394  0.37663268  0.05272151     1.35200
C123        C  0.65141592  0.36436875  0.02008194     0.77200
C124        C  0.53786390  0.34914392  0.06468728     0.77300
C125        C  0.56103578  0.40214129  0.01949365     0.77100
C126        C  0.62449948  0.30981637  0.06603706     0.77100
O127        O  0.36104009  0.34065504  0.20920315    -0.72000
O128        O  0.36697359  0.25834184  0.17329269    -0.72300
O129        O  0.39810273  0.32267223  0.17343790    -0.72100
O130        O  0.33066083  0.27557005  0.20871620    -0.72100
O131        O  0.28731054  0.29961778  0.19047634    -0.72100
O132        O  0.35584987  0.33886180  0.15138806    -0.72100
O133        O  0.32118578  0.27699802  0.15490652    -0.72000
O134        O  0.32185816  0.36347201  0.18723350    -0.72200
V135        V  0.36338721  0.29989592  0.19082115     1.35200
V136        V  0.32225544  0.31963650  0.17147517     1.35200
C137        C  0.34106730  0.36649260  0.20399294     0.77200
C138        C  0.34445871  0.25321046  0.15831850     0.77300
C139        C  0.38882110  0.33663459  0.15571072     0.77100
C140        C  0.29758718  0.27841605  0.20522239     0.77100
O141        O  0.60675248  0.07989539  0.20982478    -0.72000
O142        O  0.61134849  0.16190930  0.17352633    -0.72300
O143        O  0.57443489  0.10021009  0.17322793    -0.72100
O144        O  0.64346729  0.14229445  0.20996924    -0.72100
O145        O  0.68590276  0.11815017  0.19093416    -0.72100
O146        O  0.61665363  0.07508703  0.15437094    -0.72100
O147        O  0.65282329  0.13654642  0.15426959    -0.72000
O148        O  0.64993221  0.05568008  0.19143754    -0.72200
V149        V  0.60981920  0.12046336  0.19131555     1.35200
V150        V  0.65050465  0.09665127  0.17320464     1.35200
C151        C  0.62752569  0.05370143  0.20675826     0.77200
C152        C  0.63304698  0.16328061  0.15780561     0.77300
C153        C  0.58380234  0.08120294  0.15732661     0.77100
C154        C  0.67642546  0.13903006  0.20599337     0.77100
O155        O  0.34563042  0.07432709  0.01771316    -0.72000
O156        O  0.43134346  0.08159396  0.05029301    -0.72300
O157        O  0.41112136  0.04433611  0.01558075    -0.72100
O158        O  0.36635190  0.11173767  0.05225818    -0.72100
O159        O  0.34803034  0.06889568  0.07327240    -0.72100
O160        O  0.39406441  0.00127996  0.03671699    -0.72100
O161        O  0.41265169  0.03930152  0.07150932    -0.72000
O162        O  0.32836203  0.03038715  0.03818939    -0.72200
V163        V  0.38816498  0.07710586  0.03430480     1.35200
V164        V  0.37093004  0.03577351  0.05444331     1.35200
C165        C  0.32240609  0.05115956  0.02250341     0.77200
C166        C  0.43641221  0.06180659  0.06661005     0.77300
C167        C  0.41165245  0.01156134  0.02035862     0.77100
C168        C  0.35052386  0.10190843  0.06928040     0.77100
O169        O  0.85991836  0.34850240  0.25770603    -0.72000
O170        O  0.86537048  0.26668605  0.29441284    -0.72300
O171        O  0.82663850  0.28436225  0.25978623    -0.72100
O172        O  0.89902019  0.33007699  0.29220538    -0.72100
O173        O  0.85894474  0.35343727  0.31342342    -0.72100
O174        O  0.78608514  0.30640888  0.28112979    -0.72100
O175        O  0.82590025  0.29053952  0.31579973    -0.72000
O176        O  0.81848610  0.37032062  0.27856297    -0.72200
V177        V  0.86192360  0.30793849  0.27638153     1.35200
V178        V  0.82313195  0.32991012  0.29673471     1.35200
C179        C  0.83807074  0.37332601  0.26199878     0.77200
C180        C  0.84659768  0.26489804  0.31147306     0.77300
C181        C  0.79424546  0.28623347  0.26542774     0.77100
C182        C  0.89150874  0.34871336  0.30861780     0.77100
O183        O  0.13110425  0.35108064  0.44812043    -0.72000
O184        O  0.04759237  0.34653834  0.41289714    -0.72300
O185        O  0.11199071  0.31460722  0.41231348    -0.72100
O186        O  0.06574159  0.38264646  0.44820321    -0.72100
O187        O  0.08571431  0.42558948  0.42793551    -0.72100
O188        O  0.13288696  0.35747388  0.39228859    -0.72100
O189        O  0.06879262  0.38858158  0.39236841    -0.72000
O190        O  0.15106637  0.39468096  0.42839423    -0.72200
V191        V  0.08971389  0.34954999  0.43006156     1.35200
V192        V  0.10947472  0.39074015  0.41073251     1.35200
C193        C  0.15532478  0.37384777  0.44434026     0.77200
C194        C  0.04388068  0.36697341  0.39673399     0.77300
C195        C  0.12891304  0.32440317  0.39561980     0.77100
C196        C  0.06604959  0.41545922  0.44343051     0.77100
O197        O  0.11968156  0.07651114  0.26775115    -0.72000
O198        O  0.12787715  0.15289911  0.30815750    -0.72300
O199        O  0.15653867  0.13747606  0.26983144    -0.72100
O200        O  0.08980063  0.09231626  0.30647967    -0.72100
O201        O  0.13295189  0.06708599  0.32440016    -0.72100
O202        O  0.19991286  0.10786770  0.28472157    -0.72100
O203        O  0.17262475  0.12589593  0.32348319    -0.72000
O204        O  0.16036295  0.04717935  0.28546391    -0.72200
V205        V  0.12424827  0.11407734  0.28836417     1.35200
V206        V  0.16568050  0.08730287  0.30408996     1.35200
C207        C  0.13876045  0.04883019  0.26976253     0.77200
C208        C  0.15193305  0.15246778  0.32256966     0.77300
C209        C  0.18954887  0.13123888  0.27124309     0.77100
C210        C  0.09998673  0.07392069  0.32243344     0.77100
O211        O  0.85972865  0.10788645  0.46052702    -0.72000
O212        O  0.94758224  0.10398353  0.42888967    -0.72300
O213        O  0.88480684  0.13845777  0.42453476    -0.72100
O214        O  0.92313094  0.07394337  0.46542338    -0.72100
O215        O  0.90579238  0.02925239  0.44562880    -0.72100
O216        O  0.86259023  0.09444548  0.40597848    -0.72100
O217        O  0.92568481  0.06137980  0.40911497    -0.72000
O218        O  0.84101872  0.06154385  0.44271824    -0.72200
V219        V  0.90337029  0.10518324  0.44452406     1.35200
V220        V  0.88395329  0.06247938  0.42632534     1.35200
C221        C  0.83527410  0.08530162  0.45684623     0.77200
C222        C  0.95132401  0.08207804  0.41336115     0.77300
C223        C  0.86740548  0.12769413  0.40831110     0.77100
C224        C  0.92296992  0.04077887  0.46187316     0.77100
O225        O  0.61535515  0.34712887  0.69945048    -0.72000
O226        O  0.62485127  0.26696343  0.66178794    -0.72300
O227        O  0.64944011  0.28407135  0.70107486    -0.72100
O228        O  0.59016058  0.32947084  0.66028909    -0.72100
O229        O  0.63594478  0.35731663  0.64665656    -0.72100
O230        O  0.69651895  0.30446606  0.68464509    -0.72100
O231        O  0.66833912  0.29399776  0.64518879    -0.72000
O232        O  0.66459398  0.36910989  0.68645545    -0.72200
V233        V  0.62086496  0.30746766  0.68042393     1.35200
V234        V  0.66555922  0.33091855  0.66611418     1.35200
C235        C  0.63872260  0.37156946  0.69957154     0.77200
C236        C  0.64753204  0.26757209  0.64655705     0.77300
C237        C  0.68297404  0.28482622  0.69918899     0.77100
C238        C  0.60277608  0.35067326  0.64642634     0.77100
O239        O  0.35434609  0.33209492  0.51410557    -0.72000
O240        O  0.44063640  0.32977961  0.54653694    -0.72300
O241        O  0.37663283  0.29780884  0.54954011    -0.72100
O242        O  0.41924610  0.36423910  0.51122601    -0.72100
O243        O  0.39927060  0.40789695  0.53096011    -0.72100
O244        O  0.35855238  0.34128283  0.57016348    -0.72100
O245        O  0.42192246  0.37395541  0.56628004    -0.72000
O246        O  0.33479979  0.37560191  0.53417438    -0.72200
V247        V  0.39718679  0.33188470  0.53068268     1.35200
V248        V  0.37875521  0.37384086  0.54994522     1.35200
C249        C  0.32966161  0.35384126  0.51877963     0.77200
C250        C  0.44631254  0.35177747  0.56170825     0.77300
C251        C  0.36149502  0.30814820  0.56671343     0.77100
C252        C  0.41817357  0.39730746  0.51522962     0.77100
O253        O  0.37722334  0.07759356  0.70929390    -0.72000
O254        O  0.37470554  0.16255187  0.67578868    -0.72300
O255        O  0.34763341  0.14303973  0.71385838    -0.72100
O256        O  0.40425650  0.09781208  0.67117731    -0.72100
O257        O  0.35648868  0.07701002  0.65566302    -0.72100
O258        O  0.29963290  0.12703702  0.69667453    -0.72100
O259        O  0.32859505  0.14225158  0.65833690    -0.72000
O260        O  0.32736434  0.06052335  0.69454800    -0.72200
V261        V  0.37500834  0.11975463  0.69229215     1.35200
V262        V  0.32889384  0.10184715  0.67672700     1.35200
C263        C  0.35266652  0.05460648  0.70762874     0.77200
C264        C  0.35153052  0.16655388  0.66108767     0.77300
C265        C  0.31411793  0.14482589  0.71170753     0.77100
C266        C  0.39009941  0.08046751  0.65588147     0.77100
O267        O  0.62430747  0.07929915  0.51692634    -0.72000
O268        O  0.54616649  0.07336277  0.55676037    -0.72300
O269        O  0.60799728  0.10929292  0.55521834    -0.72100
O270        O  0.56121363  0.04363813  0.51836536    -0.72100
O271        O  0.58620874  0.99950479  0.53538121    -0.72100
O272        O  0.63517326  0.06575976  0.57161757    -0.72100
O273        O  0.57386866  0.03071066  0.57370333    -0.72000
O274        O  0.64904346  0.03399591  0.53299015    -0.72200
V275        V  0.58551261  0.07552116  0.53702889     1.35200
V276        V  0.61071314  0.03333201  0.55296447     1.35200
C277        C  0.64997941  0.05734655  0.51827814     0.77200
C278        C  0.54757244  0.05162474  0.57245654     0.77300
C279        C  0.62829787  0.09878696  0.57023970     0.77100
C280        C  0.56442325  0.01040256  0.52115240     0.77100
O281        O  0.12479099  0.35359235  0.76889795    -0.72000
O282        O  0.11266329  0.26747050  0.80031556    -0.72300
O283        O  0.08994381  0.33464144  0.80482804    -0.72100
O284        O  0.14739862  0.28574318  0.76422450    -0.72100
O285        O  0.19466242  0.29822251  0.78314313    -0.72100
O286        O  0.13656857  0.34637103  0.82450390    -0.72100
O287        O  0.16016636  0.27941260  0.81914381    -0.72000
O288        O  0.17197556  0.36598910  0.78797150    -0.72200
V289        V  0.11968647  0.31072898  0.78489478     1.35200
V290        V  0.16496612  0.32248848  0.80327906     1.35200
C291        C  0.15034359  0.37450289  0.77312735     0.77200
C292        C  0.13446572  0.25863902  0.81501955     0.77300
C293        C  0.10302229  0.34759481  0.82194869     0.77100
C294        C  0.18060940  0.28240090  0.76716630     0.77100
O295        O  0.85649130  0.33302559  0.95112257    -0.72000
O296        O  0.93628413  0.34345834  0.91326531    -0.72300
O297        O  0.91970233  0.36704071  0.95279547    -0.72100
O298        O  0.87357008  0.30879608  0.91163043    -0.72100
O299        O  0.84619874  0.35506370  0.89830401    -0.72100
O300        O  0.89867966  0.41445341  0.93708200    -0.72100
O301        O  0.90929013  0.38773332  0.89745586    -0.72000
O302        O  0.83405889  0.38218962  0.93839547    -0.72200
V303        V  0.89594701  0.33898131  0.93197990     1.35200
V304        V  0.87234114  0.38402189  0.91819718     1.35200
C305        C  0.83181359  0.35615493  0.95135012     0.77200
C306        C  0.93575331  0.36694602  0.89853235     0.77300
C307        C  0.91884682  0.40058739  0.95123438     0.77100
C308        C  0.85252468  0.32188249  0.89781839     0.77100
O309        O  0.88036679  0.08443926  0.76119969    -0.72000
O310        O  0.87463477  0.17125146  0.79300509    -0.72300
O311        O  0.90410904  0.10705935  0.79975460    -0.72100
O312        O  0.85085516  0.14943439  0.75457974    -0.72100
O313        O  0.80173637  0.13173628  0.76994324    -0.72100
O314        O  0.85500094  0.08906040  0.81512433    -0.72100
O315        O  0.82585007  0.15287789  0.80845193    -0.72000
O316        O  0.83090063  0.06653601  0.77603098    -0.72200
V317        V  0.87653305  0.12752059  0.77737206     1.35200
V318        V  0.82931485  0.11014621  0.79198005     1.35200
C319        C  0.85668383  0.06057810  0.76321487     0.77200
C320        C  0.84934818  0.17683731  0.80621192     0.77300
C321        C  0.88856790  0.09223609  0.81551239     0.77100
C322        C  0.81714714  0.14968975  0.75534211     0.77100
O323        O  0.12041876  0.09412094  0.95343209    -0.72000
O324        O  0.04099542  0.08417087  0.91544869    -0.72300
O325        O  0.05635168  0.06163841  0.95550830    -0.72100
O326        O  0.10381957  0.11703026  0.91357802    -0.72100
O327        O  0.13116398  0.06991249  0.90130155    -0.72100
O328        O  0.07605018  0.01313853  0.94037778    -0.72100
O329        O  0.06736844  0.03889908  0.90028038    -0.72000
O330        O  0.14120320  0.04356029  0.94160632    -0.72200
V331        V  0.08094212  0.08830152  0.93434043     1.35200
V332        V  0.10364853  0.04220850  0.92126852     1.35200
C333        C  0.14417339  0.07009210  0.95406584     0.77200
C334        C  0.04168971  0.06066185  0.90071327     0.77300
C335        C  0.05633115  0.02801837  0.95444395     0.77100
C336        C  0.12472614  0.10302483  0.90002441     0.77100
O337        O  0.37037843  0.58405027  0.25709502    -0.72000
O338        O  0.37145263  0.66658252  0.29326344    -0.72300
O339        O  0.40635410  0.60379178  0.29284071    -0.72100
O340        O  0.33633817  0.64729674  0.25770365    -0.72100
O341        O  0.29420421  0.62260946  0.27667487    -0.72100
O342        O  0.36495380  0.58290311  0.31402755    -0.72100
O343        O  0.32836874  0.64398009  0.31243729    -0.72000
O344        O  0.33059718  0.55988900  0.27807283    -0.72200
V345        V  0.37033311  0.62482916  0.27558499     1.35200
V346        V  0.33028184  0.60258987  0.29483032     1.35200
C347        C  0.35061036  0.55763504  0.26159422     0.77200
C348        C  0.34968093  0.66945502  0.30889125     0.77300
C349        C  0.39779339  0.58727397  0.30988503     0.77100
C350        C  0.30345826  0.64356605  0.26157125     0.77100
O351        O  0.62846799  0.57170310  0.45462399    -0.72000
O352        O  0.54432691  0.57842166  0.42026134    -0.72300
O353        O  0.56361863  0.54005724  0.45473897    -0.72100
O354        O  0.60863750  0.61022185  0.42012034    -0.72100
O355        O  0.62978625  0.56871368  0.39906146    -0.72100
O356        O  0.58244272  0.49845076  0.43305176    -0.72100
O357        O  0.56562970  0.53818760  0.39842745    -0.72000
O358        O  0.64769086  0.52871557  0.43403915    -0.72200
V359        V  0.58676157  0.57424357  0.43708372     1.35200
V360        V  0.60618597  0.53428537  0.41663804     1.35200
C361        C  0.65233046  0.54890225  0.45021610     0.77200
C362        C  0.54095794  0.55980519  0.40327323     0.77300
C363        C  0.56393732  0.50753591  0.44930784     0.77100
C364        C  0.62592892  0.60149399  0.40337711     0.77100
O365        O  0.36169178  0.83021363  0.45701205    -0.72000
O366        O  0.44121377  0.83731448  0.41836672    -0.72300
O367        O  0.42412483  0.86682421  0.45641779    -0.72100
O368        O  0.37965779  0.80042311  0.41904960    -0.72100
O369        O  0.35302273  0.84362951  0.40197041    -0.72100
O370        O  0.39857065  0.91058963  0.43936224    -0.72100
O371        O  0.41383488  0.87996997  0.40123632    -0.72000
O372        O  0.33618111  0.87448400  0.44040493    -0.72200
V373        V  0.40107140  0.83457790  0.43747270     1.35200
V374        V  0.37577533  0.87635888  0.42119731     1.35200
C375        C  0.33519015  0.85105526  0.45511601     0.77200
C376        C  0.44043965  0.85946282  0.40288181     0.77300
C377        C  0.42025787  0.90000604  0.45373157     0.77100
C378        C  0.35980070  0.81066652  0.40375947     0.77100
O379        O  0.62050648  0.84957340  0.26999108    -0.72000
O380        O  0.61785445  0.76117236  0.30038015    -0.72300
O381        O  0.59077128  0.82631781  0.30675195    -0.72100
O382        O  0.64740329  0.78364677  0.26336679    -0.72100
O383        O  0.69524926  0.79474522  0.28207236    -0.72100
O384        O  0.63826208  0.84400787  0.32386850    -0.72100
O385        O  0.66354493  0.77778364  0.31954335    -0.72000
O386        O  0.67060447  0.86245433  0.28593281    -0.72200
V387        V  0.62011111  0.80556492  0.28542512     1.35200
V388        V  0.66609166  0.81972756  0.30243427     1.35200
C389        C  0.64638941  0.87084806  0.27256600     0.77200
C390        C  0.63975703  0.75480707  0.31552981     0.77300
C391        C  0.60451838  0.84169185  0.32290387     0.77100
C392        C  0.68067109  0.78001385  0.26585128     0.77100
O393        O  0.12057147  0.84292395  0.20090667    -0.72000
O394        O  0.12787427  0.76694293  0.16016972    -0.72300
O395        O  0.15773198  0.78184046  0.19827068    -0.72100
O396        O  0.08998501  0.82735714  0.16244521    -0.72100
O397        O  0.13273451  0.85342820  0.14462828    -0.72100
O398        O  0.20061690  0.81133250  0.18275905    -0.72100
O399        O  0.17179387  0.79458111  0.14435482    -0.72000
O400        O  0.16130350  0.87225532  0.18324664    -0.72200
V401        V  0.12484698  0.80549377  0.18019628     1.35200
V402        V  0.16585796  0.83255948  0.16422056     1.35200
C403        C  0.13952232  0.87069398  0.19888550     0.77200
C404        C  0.15094759  0.76815185  0.14519423     0.77300
C405        C  0.19072303  0.78776051  0.19620268     0.77100
C406        C  0.09990327  0.84604880  0.14652894     0.77100
O407        O  0.85421103  0.83403563  0.01490642    -0.72000
O408        O  0.93251306  0.83968175  0.05392109    -0.72300
O409        O  0.86738153  0.81068910  0.05490324    -0.72100
O410        O  0.92021063  0.86304809  0.01370760    -0.72100
O411        O  0.90079621  0.91259227  0.02768823    -0.72100
O412        O  0.84462727  0.85965096  0.06789054    -0.72100
O413        O  0.90950305  0.88763056  0.06809034    -0.72000
O414        O  0.83409555  0.88460036  0.02711471    -0.72200
V415        V  0.89308295  0.83789289  0.03452395     1.35200
V416        V  0.87252460  0.88528025  0.04726743     1.35200
C417        C  0.83054454  0.85813239  0.01457190     0.77200
C418        C  0.93347234  0.86393981  0.06815989     0.77300
C419        C  0.84818125  0.82611734  0.06886642     0.77100
C420        C  0.92097254  0.89670452  0.01430030     0.77100
O421        O  0.12666242  0.59008092  0.01113635    -0.72000
O422        O  0.03848226  0.59888063  0.04149962    -0.72300
O423        O  0.10534819  0.62247155  0.04762983    -0.72100
O424        O  0.05912713  0.56667400  0.00494998    -0.72100
O425        O  0.07068177  0.51884479  0.02352509    -0.72100
O426        O  0.11796023  0.57470311  0.06603384    -0.72100
O427        O  0.05111101  0.55123694  0.05997776    -0.72000
O428        O  0.13808205  0.54141030  0.02899865    -0.72200
V429        V  0.08276459  0.59359519  0.02662548     1.35200
V430        V  0.09444871  0.54750703  0.04423976     1.35200
C431        C  0.14712908  0.56389671  0.01477096     0.77200
C432        C  0.02968894  0.57639128  0.05585320     0.77300
C433        C  0.11867251  0.60834330  0.06434731     0.77100
C434        C  0.05559402  0.53341322  0.00748253     0.77100
O435        O  0.87236390  0.58065441  0.19588256    -0.72000
O436        O  0.85480275  0.66467074  0.16226894    -0.72300
O437        O  0.83702222  0.64264778  0.20230047    -0.72100
O438        O  0.89068915  0.60379049  0.15621044    -0.72100
O439        O  0.84417503  0.57420598  0.14510127    -0.72100
O440        O  0.78811507  0.62435327  0.18696027    -0.72100
O441        O  0.81082749  0.63693264  0.14664543    -0.72000
O442        O  0.82084570  0.56016226  0.18555310    -0.72200
V443        V  0.86287810  0.62244228  0.17902324     1.35200
V444        V  0.81680849  0.59922416  0.16642196     1.35200
C445        C  0.84894301  0.55623041  0.19659444     0.77200
C446        C  0.83062431  0.66405262  0.14788550     0.77300
C447        C  0.80332862  0.64224049  0.20174141     0.77100
C448        C  0.87675995  0.58250981  0.14285219     0.77100
C449        C  0.99558951  0.57962965  0.06782460    -0.05500
C450        C  0.97476577  0.61065577  0.06588429    -0.05400
C451        C  0.94441052  0.61539819  0.07871942    -0.23600
C452        C  0.93439904  0.58919684  0.09373019     0.18600
C453        C  0.95400920  0.55702561  0.09506596     0.15800
C454        C  0.98439566  0.55237209  0.08200350    -0.18600
C455        C  0.94398036  0.53097205  0.11028008    -0.20400
C456        C  0.91637435  0.53786221  0.12503592    -0.13000
C457        C  0.89819909  0.57053153  0.12441241     0.03700
C458        C  0.90646709  0.59558211  0.10832447    -0.25100
H459        H  0.98259991  0.63183812  0.05494196     0.08700
H460        H  0.92948024  0.64009305  0.07743421     0.12300
H461        H  0.00000438  0.52811136  0.08345378     0.12300
H462        H  0.95864288  0.50611142  0.11148773     0.12000
H463        H  0.91061882  0.51865896  0.13767644     0.12600
H464        H  0.89270956  0.62108535  0.10816004     0.14500
C465        C  0.82616353  0.69285073  0.13191870    -0.05500
C466        C  0.81444374  0.68383032  0.11100220    -0.05400
C467        C  0.81206480  0.70962752  0.09488724    -0.23600
C468        C  0.82097050  0.74504441  0.09945856     0.18600
C469        C  0.83091561  0.75497361  0.12075216     0.15800
C470        C  0.83384462  0.72861982  0.13688594    -0.18600
C471        C  0.83926902  0.79076905  0.12515356    -0.20400
C472        C  0.84069800  0.81569227  0.10827967    -0.13000
C473        C  0.83391587  0.80498925  0.08687347     0.03700
C474        C  0.82238902  0.77013277  0.08273563    -0.25100
H475        H  0.80831758  0.65641127  0.10687545     0.08700
H476        H  0.80423031  0.70166189  0.07867736     0.12300
H477        H  0.84246211  0.73575590  0.15309277     0.12300
H478        H  0.84659072  0.79904448  0.14138755     0.12000
H479        H  0.85018404  0.84242168  0.11166027     0.12600
H480        H  0.81731230  0.76184539  0.06616442     0.14500
C481        C  0.07405561  0.85561583  0.12957006    -0.05500
C482        C  0.08474013  0.85531085  0.10775042    -0.05400
C483        C  0.05933064  0.85707453  0.09122010    -0.23600
C484        C  0.02292103  0.85980044  0.09628195     0.18600
C485        C  0.01213412  0.86189442  0.11823931     0.15800
C486        C  0.03773441  0.85937409  0.13471678    -0.18600
C487        C  0.97584654  0.86570429  0.12333814    -0.20400
C488        C  0.95042799  0.86718017  0.10685083    -0.13000
C489        C  0.96083903  0.86390026  0.08510436     0.03700
C490        C  0.99706144  0.86009983  0.07983709    -0.25100
H491        H  0.11258360  0.85171179  0.10348285     0.08700
H492        H  0.06810036  0.85560341  0.07449425     0.12300
H493        H  0.02935886  0.85941903  0.15155281     0.12300
H494        H  0.96712361  0.86744630  0.14006485     0.12000
H495        H  0.92246157  0.86996673  0.11107255     0.12600
H496        H  0.00503455  0.85783101  0.06298682     0.14500
C497        C  0.13237124  0.63122010  0.08189245    -0.05500
C498        C  0.13223541  0.61926305  0.10345958    -0.05400
C499        C  0.13800799  0.64329579  0.12046096    -0.23600
C500        C  0.14422844  0.67950821  0.11607723     0.18600
C501        C  0.14696638  0.69106797  0.09432327     0.15800
C502        C  0.14102620  0.66689601  0.07743633    -0.18600
C503        C  0.15398104  0.72698370  0.08977600    -0.20400
C504        C  0.15683894  0.75160108  0.10659596    -0.13000
C505        C  0.15213333  0.74081278  0.12817042     0.03700
C506        C  0.14640909  0.70462845  0.13293082    -0.25100
H507        H  0.12560900  0.59183180  0.10722877     0.08700
H508        H  0.13628693  0.63383308  0.13701949     0.12300
H509        H  0.14155051  0.67624321  0.06080633     0.12300
H510        H  0.15633798  0.73620539  0.07319183     0.12000
H511        H  0.16114283  0.77945588  0.10269206     0.12600
H512        H  0.14308059  0.69624763  0.14962651     0.14500
C513        C  0.70103397  0.75707849  0.25080130    -0.05500
C514        C  0.68682042  0.74890024  0.23032250    -0.05400
C515        C  0.70342578  0.72385386  0.21693008    -0.23600
C516        C  0.73438512  0.70623841  0.22385755     0.18600
C517        C  0.74918241  0.71452748  0.24434015     0.15800
C518        C  0.73252921  0.74005116  0.25762974    -0.18600
C519        C  0.78032378  0.69705457  0.25117079    -0.20400
C520        C  0.79721476  0.67241844  0.23758725    -0.13000
C521        C  0.78284586  0.66426582  0.21715586     0.03700
C522        C  0.75105599  0.68084121  0.21052579    -0.25100
H523        H  0.66246466  0.76154835  0.22478199     0.08700
H524        H  0.69181655  0.71798279  0.20124553     0.12300
H525        H  0.74339837  0.74577798  0.27353891     0.12300
H526        H  0.79200045  0.70294504  0.26683414     0.12000
H527        H  0.82186537  0.66007522  0.24290482     0.12600
H528        H  0.74019487  0.67516432  0.19460508     0.14500
C529        C  0.46842687  0.86050201  0.38615066    -0.05500
C530        C  0.45790808  0.86444596  0.36447339    -0.05400
C531        C  0.48315874  0.86458438  0.34793401    -0.23600
C532        C  0.51949875  0.86130000  0.35280275     0.18600
C533        C  0.53072860  0.85853426  0.37461528     0.15800
C534        C  0.50494265  0.85771481  0.39125637    -0.18600
C535        C  0.56741190  0.85571656  0.37918484    -0.20400
C536        C  0.59236298  0.85331231  0.36226478    -0.13000
C537        C  0.58087576  0.85369051  0.34060148     0.03700
C538        C  0.54456662  0.85915622  0.33607003    -0.25100
H539        H  0.42988178  0.86653765  0.36028051     0.08700
H540        H  0.47419110  0.86672525  0.33128288     0.12300
H541        H  0.51314154  0.85502541  0.40802471     0.12300
H542        H  0.57665456  0.85395360  0.39578941     0.12000
H543        H  0.62023548  0.84886772  0.36610390     0.12600
H544        H  0.53549261  0.85972256  0.31937676     0.14500
C545        C  0.63730012  0.72168988  0.32847444    -0.05500
C546        C  0.61599396  0.69317459  0.32133491    -0.05400
C547        C  0.61230892  0.66243403  0.33392255    -0.23600
C548        C  0.62932255  0.65994197  0.35408117     0.18600
C549        C  0.65093360  0.68841264  0.36145074     0.15800
C550        C  0.65526362  0.71884082  0.34843259    -0.18600
C551        C  0.66661748  0.68652390  0.38208096    -0.20400
C552        C  0.65966406  0.65739616  0.39561439    -0.13000
C553        C  0.63820548  0.62918136  0.38834595     0.03700
C554        C  0.62379407  0.63014409  0.36739945    -0.25100
H555        H  0.60199750  0.69470852  0.30601925     0.08700
H556        H  0.59547004  0.64095082  0.32811439     0.12300
H557        H  0.67153341  0.74080772  0.35420404     0.12300
H558        H  0.68308822  0.70817003  0.38805344     0.12000
H559        H  0.67044983  0.65713985  0.41189237     0.12600
H560        H  0.60638545  0.60874236  0.36204629     0.14500
C561        C  0.27723828  0.66550797  0.24965382    -0.05500
C562        C  0.24035077  0.66093952  0.25272359    -0.05400
C563        C  0.21607140  0.68449718  0.24313370    -0.23600
C564        C  0.22837241  0.71318528  0.23055274     0.18600
C565        C  0.26539167  0.71782357  0.22724765     0.15800
C566        C  0.28948402  0.69382256  0.23663010    -0.18600
C567        C  0.27775226  0.74659133  0.21477972    -0.20400
C568        C  0.25355128  0.77028458  0.20529946    -0.13000
C569        C  0.21664536  0.76563427  0.20821774     0.03700
C570        C  0.20429144  0.73718453  0.22111381    -0.25100
H571        H  0.23032041  0.63953033  0.26281128     0.08700
H572        H  0.18771550  0.68056433  0.24578694     0.12300
H573        H  0.31790356  0.69792358  0.23429970     0.12300
H574        H  0.30611591  0.75053597  0.21216730     0.12000
H575        H  0.26368363  0.79177856  0.19531531     0.12600
H576        H  0.17585633  0.73312264  0.22339981     0.14500
C577        C  0.42585676  0.57521177  0.32488494    -0.05500
C578        C  0.45885222  0.56363891  0.31665439    -0.05400
C579        C  0.48724700  0.55625809  0.33058805    -0.23600
C580        C  0.48342648  0.56142299  0.35295387     0.18600
C581        C  0.45031017  0.57314176  0.36143854     0.15800
C582        C  0.42144185  0.57923205  0.34736178    -0.18600
C583        C  0.44711649  0.57980425  0.38373161    -0.20400
C584        C  0.47661074  0.57549026  0.39740564    -0.13000
C585        C  0.50946999  0.56360363  0.38909092     0.03700
C586        C  0.51252749  0.55613209  0.36687183    -0.25100
H587        H  0.46277260  0.56074713  0.29935387     0.08700
H588        H  0.51250601  0.54753101  0.32381304     0.12300
H589        H  0.39625070  0.58899795  0.35373281     0.12300
H590        H  0.42203533  0.58900638  0.39051630     0.12000
H591        H  0.47372201  0.58128819  0.41450676     0.12600
H592        H  0.53794734  0.54739268  0.36028748     0.14500
C593        C  0.34735624  0.78453557  0.38772326    -0.05500
C594        C  0.33247030  0.75219449  0.39469875    -0.05400
C595        C  0.32699057  0.72431414  0.38006042    -0.23600
C596        C  0.33771562  0.72790916  0.35839946     0.18600
C597        C  0.35233369  0.76059559  0.35115006     0.15800
C598        C  0.35623052  0.78907742  0.36578423    -0.18600
C599        C  0.36460651  0.76350362  0.32973079    -0.20400
C600        C  0.36355062  0.73394424  0.31586943    -0.13000
C601        C  0.34937942  0.70130456  0.32302996     0.03700
C602        C  0.33568076  0.69878376  0.34418097    -0.25100
H603        H  0.32605130  0.74819890  0.41164092     0.08700
H604        H  0.31593268  0.69939114  0.38589956     0.12300
H605        H  0.36869557  0.81372288  0.36052391     0.12300
H606        H  0.37599789  0.78828798  0.32390839     0.12000
H607        H  0.37395816  0.73654050  0.29956969     0.12600
H608        H  0.32491881  0.67363798  0.34990789     0.14500
C609        C  0.94639283  0.91655777  0.00050819    -0.05500
C610        C  0.96653890  0.89853864  0.98464978    -0.05400
C611        C  0.99283989  0.91643008  0.97282213    -0.23600
C612        C  0.99966329  0.95261626  0.97673353     0.18600
C613        C  0.97952057  0.97095903  0.99264249     0.15800
C614        C  0.95294299  0.95290405  0.00431581    -0.18600
C615        C  0.98636226  0.00705998  0.99666863    -0.20400
C616        C  0.01234204  0.02508567  0.98474362    -0.13000
C617        C  0.03210934  0.00736044  0.96858842     0.03700
C618        C  0.02595099  0.97088810  0.96486695    -0.25100
H619        H  0.96222786  0.87043335  0.98153662     0.08700
H620        H  0.00799573  0.90188801  0.96071046     0.12300
H621        H  0.93791554  0.96698773  0.01669441     0.12300
H622        H  0.97129326  0.02151153  0.00886179     0.12000
H623        H  0.01646779  0.05320508  0.98790768     0.12600
H624        H  0.04082731  0.95699349  0.95234620     0.14500
C625        C  0.90927943  0.08169335  0.83448448    -0.05500
C626        C  0.89861347  0.09324612  0.85512580    -0.05400
C627        C  0.92192071  0.09025520  0.87268343    -0.23600
C628        C  0.95588151  0.07518847  0.86978562     0.18600
C629        C  0.96575049  0.06160708  0.84921693     0.15800
C630        C  0.94249631  0.06526671  0.83167187    -0.18600
C631        C  0.99926301  0.04582533  0.84631767    -0.20400
C632        C  0.02334351  0.04450408  0.86344816    -0.13000
C633        C  0.01448008  0.05939968  0.88364654     0.03700
C634        C  0.98053872  0.07436205  0.88685039    -0.25100
H635        H  0.87316419  0.10653803  0.85736306     0.08700
H636        H  0.91382079  0.10064901  0.88833359     0.12300
H637        H  0.95067238  0.05652022  0.81565005     0.12300
H638        H  0.00711794  0.03512781  0.83069443     0.12000
H639        H  0.04946824  0.03292999  0.86066007     0.12600
H640        H  0.97353023  0.08564882  0.90247634     0.14500
C641        C  0.03209426  0.51247999  0.99316143    -0.05500
C642        C  0.01600219  0.52819248  0.97493693    -0.05400
C643        C  0.98996958  0.50972111  0.96319564    -0.23600
C644        C  0.97938826  0.47543793  0.96965926     0.18600
C645        C  0.99597019  0.45929837  0.98774953     0.15800
C646        C  0.02237350  0.47771829  0.99919288    -0.18600
C647        C  0.98555385  0.42513944  0.99434439    -0.20400
C648        C  0.95930481  0.40677233  0.98291560    -0.13000
C649        C  0.94284521  0.42229962  0.96476661     0.03700
C650        C  0.95270751  0.45689345  0.95833502    -0.25100
H651        H  0.02293663  0.55507218  0.97006418     0.08700
H652        H  0.97768049  0.52247816  0.94931843     0.12300
H653        H  0.03436747  0.46541323  0.01332763     0.12300
H654        H  0.99795272  0.41247036  0.00821973     0.12000
H655        H  0.95229033  0.38005687  0.98807640     0.12600
H656        H  0.94053263  0.46885622  0.94415298     0.14500
C657        C  0.83859809  0.29869906  0.88070454    -0.05500
C658        C  0.81571006  0.27043068  0.88600277    -0.05400
C659        C  0.80999949  0.24265297  0.87127661    -0.23600
C660        C  0.82834859  0.24211902  0.85143710     0.18600
C661        C  0.85064724  0.27113202  0.84577243     0.15800
C662        C  0.85497179  0.29965927  0.86027360    -0.18600
C663        C  0.87018068  0.26995260  0.82640118    -0.20400
C664        C  0.86906060  0.23957442  0.81328328    -0.13000
C665        C  0.84781111  0.21016001  0.81905430     0.03700
C666        C  0.82656380  0.21211789  0.83783069    -0.25100
H667        H  0.80360962  0.26905489  0.90192906     0.08700
H668        H  0.79292569  0.22060426  0.87592752     0.12300
H669        H  0.87355210  0.32099168  0.85649551     0.12300
H670        H  0.88740670  0.29193229  0.82182284     0.12000
H671        H  0.88536017  0.23883603  0.79878498     0.12600
H672        H  0.81017011  0.18953838  0.84248378     0.14500
C673        C  0.07872967  0.36071946  0.83900987    -0.05500
C674        C  0.08904055  0.36017493  0.86088774    -0.05400
C675        C  0.06332815  0.36339349  0.87727815    -0.23600
C676        C  0.02705188  0.36717522  0.87195984     0.18600
C677        C  0.01704942  0.37060820  0.84996438     0.15800
C678        C  0.04293341  0.36768219  0.83372303    -0.18600
C679        C  0.98104139  0.37498160  0.84445288    -0.20400
C680        C  0.95490439  0.37465575  0.86051163    -0.13000
C681        C  0.96428391  0.36943008  0.88227214     0.03700
C682        C  0.00044349  0.36623178  0.88804449    -0.25100
H683        H  0.11651433  0.35484441  0.86531485     0.08700
H684        H  0.07160068  0.36125404  0.89405603     0.12300
H685        H  0.03478877  0.36855353  0.81686110     0.12300
H686        H  0.97299919  0.37779330  0.82766566     0.12000
H687        H  0.92712275  0.37726724  0.85586063     0.12600
H688        H  0.00771736  0.36271212  0.90491765     0.14500
C689        C  0.12971686  0.22516705  0.82728392    -0.05500
C690        C  0.09713949  0.20668351  0.82615557    -0.05400
C691        C  0.09139702  0.17640477  0.83879117    -0.23600
C692        C  0.11816988  0.16407863  0.85275168     0.18600
C693        C  0.15157819  0.18160080  0.85350503     0.15800
C694        C  0.15716909  0.21206096  0.84070065    -0.18600
C695        C  0.17812473  0.16922793  0.86777102    -0.20400
C696        C  0.17074339  0.14118232  0.88210757    -0.13000
C697        C  0.13705304  0.12494129  0.88194306     0.03700
C698        C  0.11132651  0.13569827  0.86682534    -0.25100
H699        H  0.07566972  0.21619643  0.81591496     0.08700
H700        H  0.06567703  0.16317972  0.83806699     0.12300
H701        H  0.18250603  0.22599159  0.84156147     0.12300
H702        H  0.20390562  0.18230166  0.86854264     0.12000
H703        H  0.19048941  0.13353830  0.89405572     0.12600
H704        H  0.08505311  0.12343588  0.86705520     0.14500
C705        C  0.54182137  0.98520202  0.50883690    -0.05500
C706        C  0.54841861  0.94833281  0.50967525    -0.05400
C707        C  0.52547900  0.92436004  0.49934040    -0.23600
C708        C  0.49537065  0.93684308  0.48814232     0.18600
C709        C  0.48854220  0.97387302  0.48708183     0.15800
C710        C  0.51188367  0.99780363  0.49733570    -0.18600
C711        C  0.45842532  0.98630232  0.47583783    -0.20400
C712        C  0.43559488  0.96226829  0.46541304    -0.13000
C713        C  0.44229855  0.92541250  0.46625711     0.03700
C714        C  0.47213373  0.91290333  0.47786472    -0.25100
H715        H  0.57118575  0.93799123  0.51848754     0.08700
H716        H  0.53113657  0.89603693  0.50024979     0.12300
H717        H  0.50628067  0.02617672  0.49674128     0.12300
H718        H  0.45274562  0.01461830  0.47490829     0.12000
H719        H  0.41290650  0.97253779  0.45649420     0.12600
H720        H  0.47784803  0.88455094  0.47845906     0.14500
C721        C  0.20183740  0.25841919  0.75324093    -0.05500
C722        C  0.18563720  0.24048332  0.73581006    -0.05400
C723        C  0.20418140  0.21409630  0.72444872    -0.23600
C724        C  0.23914461  0.20505842  0.73042031     0.18600
C725        C  0.25591673  0.22350692  0.74761098     0.15800
C726        C  0.23727962  0.25021407  0.75877927    -0.18600
C727        C  0.29089075  0.21457727  0.75356760    -0.20400
C728        C  0.30929433  0.18785957  0.74244479    -0.13000
C729        C  0.29297769  0.16947635  0.72524563     0.03700
C730        C  0.25769025  0.17802968  0.71944296    -0.25100
H731        H  0.15827129  0.24620149  0.73129985     0.08700
H732        H  0.19096231  0.20034445  0.71123936     0.12300
H733        H  0.24998684  0.26370297  0.77227595     0.12300
H734        H  0.30413843  0.22847256  0.76670712     0.12000
H735        H  0.33659456  0.18205489  0.74704555     0.12600
H736        H  0.24500248  0.16442046  0.70598095     0.14500
C737        C  0.52082998  0.05165659  0.58989203    -0.05500
C738        C  0.53256237  0.04689752  0.61129862    -0.05400
C739        C  0.50859378  0.04892298  0.62849905    -0.23600
C740        C  0.47233158  0.05510259  0.62455043     0.18600
C741        C  0.45983223  0.05813600  0.60298491     0.15800
C742        C  0.48434404  0.05691731  0.58571713    -0.18600
C743        C  0.42323264  0.06335527  0.59922331    -0.20400
C744        C  0.39968864  0.06772171  0.61665185    -0.13000
C745        C  0.41254462  0.06730085  0.63802227     0.03700
C746        C  0.44866575  0.05980726  0.64186447    -0.25100
H747        H  0.56063083  0.04279051  0.61477346     0.08700
H748        H  0.51854467  0.04631041  0.64492143     0.12300
H749        H  0.47518486  0.06013639  0.56916241     0.12300
H750        H  0.41303109  0.06532401  0.58283170     0.12000
H751        H  0.37189959  0.07370475  0.61339872     0.12600
H752        H  0.45865721  0.05924277  0.65836714     0.14500
C753        C  0.54124763  0.48151126  0.46088283    -0.05500
C754        C  0.54304350  0.44488205  0.45609058    -0.05400
C755        C  0.51880978  0.42101404  0.46546395    -0.23600
C756        C  0.49213355  0.43348981  0.47955798     0.18600
C757        C  0.49043626  0.47022082  0.48463098     0.15800
C758        C  0.51514482  0.49384355  0.47546202    -0.18600
C759        C  0.46378737  0.48287149  0.49861459    -0.20400
C760        C  0.43925551  0.45927759  0.50778192    -0.13000
C761        C  0.44086265  0.42261317  0.50310157     0.03700
C762        C  0.46725850  0.40992117  0.48876867    -0.25100
H763        H  0.56281337  0.43477320  0.44482834     0.08700
H764        H  0.52059628  0.39291157  0.46144340     0.12300
H765        H  0.51325657  0.52206901  0.47916990     0.12300
H766        H  0.46212450  0.51098086  0.50263454     0.12000
H767        H  0.41948214  0.46966829  0.51894610     0.12600
H768        H  0.46911080  0.38162741  0.48525215     0.14500
C769        C  0.34984809  0.28180330  0.58279296    -0.05500
C770        C  0.33336442  0.25013990  0.57598898    -0.05400
C771        C  0.32753496  0.22238752  0.59062861    -0.23600
C772        C  0.33940571  0.22545327  0.61207622     0.18600
C773        C  0.35566778  0.25748186  0.61913699     0.15800
C774        C  0.35993355  0.28586444  0.60454813    -0.18600
C775        C  0.36907160  0.25982687  0.64030402    -0.20400
C776        C  0.36747638  0.23029310  0.65409102    -0.13000
C777        C  0.35159359  0.19836239  0.64710840     0.03700
C778        C  0.33681677  0.19641026  0.62625212    -0.25100
H779        H  0.32576188  0.24661646  0.55919516     0.08700
H780        H  0.31517583  0.19797814  0.58494872     0.12300
H781        H  0.37343103  0.31003734  0.60967895     0.12300
H782        H  0.38173838  0.28409468  0.64596060     0.12000
H783        H  0.37879596  0.23233648  0.67018699     0.12600
H784        H  0.32481746  0.17171523  0.62069521     0.14500
C785        C  0.70496636  0.26132959  0.71287097    -0.05500
C786        C  0.68903152  0.24347699  0.73041981    -0.05400
C787        C  0.70765578  0.21726616  0.74169403    -0.23600
C788        C  0.74251999  0.20835782  0.73557548     0.18600
C789        C  0.75926830  0.22677075  0.71835077     0.15800
C790        C  0.74042231  0.25335564  0.70715688    -0.18600
C791        C  0.79438965  0.21793133  0.71250479    -0.20400
C792        C  0.81290497  0.19152314  0.72388160    -0.13000
C793        C  0.79638103  0.17327755  0.74106341     0.03700
C794        C  0.76097514  0.18154346  0.74659809    -0.25100
H795        H  0.66172918  0.24916338  0.73512641     0.08700
H796        H  0.69458190  0.20358561  0.75498488     0.12300
H797        H  0.75283896  0.26681092  0.69355243     0.12300
H798        H  0.80769107  0.23177660  0.69937081     0.12000
H799        H  0.84038932  0.18591710  0.71955547     0.12600
H800        H  0.74816312  0.16811447  0.76008868     0.14500
C801        C  0.57899231  0.36404154  0.62948229    -0.05500
C802        C  0.55404617  0.39084245  0.63420677    -0.05400
C803        C  0.52446747  0.39609463  0.62070769    -0.23600
C804        C  0.51889866  0.37368595  0.60277137     0.18600
C805        C  0.54477247  0.34752876  0.59754960     0.15800
C806        C  0.57496077  0.34333207  0.61073639    -0.18600
C807        C  0.53892901  0.32444744  0.58006044    -0.20400
C808        C  0.50713120  0.32628442  0.56831190    -0.13000
C809        C  0.48064685  0.35141905  0.57368640     0.03700
C810        C  0.48712608  0.37568010  0.59067461    -0.25100
H811        H  0.55642271  0.40632182  0.64896248     0.08700
H812        H  0.50494700  0.41626199  0.62498893     0.12300
H813        H  0.59371603  0.32187926  0.60749961     0.12300
H814        H  0.55849345  0.30425688  0.57586154     0.12000
H815        H  0.50303911  0.30753220  0.55519542     0.12600
H816        H  0.46703800  0.39532152  0.59492802     0.14500
C817        C  0.64053775  0.12453577  0.58671643    -0.05500
C818        C  0.64251811  0.11434081  0.60857745    -0.05400
C819        C  0.64550838  0.14017493  0.62487736    -0.23600
C820        C  0.64700534  0.17654848  0.61951554     0.18600
C821        C  0.64752474  0.18673077  0.59744580     0.15800
C822        C  0.64407165  0.16072362  0.58124370    -0.18600
C823        C  0.65010088  0.22289926  0.59193922    -0.20400
C824        C  0.65115513  0.24888243  0.60811545    -0.13000
C825        C  0.64880375  0.23924837  0.63003126     0.03700
C826        C  0.64704353  0.20298722  0.63572817    -0.25100
H827        H  0.63940173  0.08660722  0.61313988     0.08700
H828        H  0.64545157  0.13178921  0.64167629     0.12300
H829        H  0.64259476  0.16876209  0.56438741     0.12300
H830        H  0.65076827  0.23113786  0.57511518     0.12000
H831        H  0.65260093  0.27672917  0.60348688     0.12600
H832        H  0.64570068  0.19547306  0.65267182     0.14500
C833        C  0.80047455  0.08671204  0.46832591    -0.05500
C834        C  0.78769268  0.11887963  0.47714666    -0.05400
C835        C  0.75416063  0.12034557  0.48724905    -0.23600
C836        C  0.73313899  0.08947301  0.48913910     0.18600
C837        C  0.74597414  0.05693534  0.48046063     0.15800
C838        C  0.77918340  0.05591043  0.46985941    -0.18600
C839        C  0.72580541  0.02571126  0.48300090    -0.20400
C840        C  0.69387913  0.02638803  0.49470530    -0.13000
C841        C  0.68090341  0.05844208  0.50347357     0.03700
C842        C  0.70017775  0.09018531  0.50020490    -0.25100
H843        H  0.80343072  0.14304093  0.47593734     0.08700
H844        H  0.74489465  0.14551788  0.49384123     0.12300
H845        H  0.78881207  0.03091173  0.46318217     0.12300
H846        H  0.73528265  0.00053177  0.47652541     0.12000
H847        H  0.67946983  0.00166386  0.49723462     0.12600
H848        H  0.69059782  0.11485867  0.50733641     0.14500
C849        C  0.13695403  0.01966060  0.25376231    -0.05500
C850        C  0.14026717  0.02728243  0.23159854    -0.05400
C851        C  0.14178561  0.99964478  0.21636888    -0.23600
C852        C  0.13896757  0.96395159  0.22303796     0.18600
C853        C  0.13405205  0.95615973  0.24526711     0.15800
C854        C  0.13382156  0.98403182  0.26053752    -0.18600
C855        C  0.12960506  0.92060785  0.25183417    -0.20400
C856        C  0.13045589  0.89299384  0.23659238    -0.13000
C857        C  0.13675649  0.90030939  0.21461990     0.03700
C858        C  0.14101633  0.93592018  0.20791148    -0.25100
H859        H  0.14289821  0.05463902  0.22615051     0.08700
H860        H  0.14526494  0.00617572  0.19940362     0.12300
H861        H  0.13099297  0.97811301  0.27764175     0.12300
H862        H  0.12548370  0.91415239  0.26875350     0.12000
H863        H  0.12713663  0.86573144  0.24206312     0.12600
H864        H  0.14545178  0.94177899  0.19092279     0.14500
C865        C  0.98439680  0.08044565  0.40014687    -0.05500
C866        C  0.01509095  0.09965003  0.40608597    -0.05400
C867        C  0.04569207  0.09887930  0.39301072    -0.23600
C868        C  0.04591002  0.07933637  0.37359206     0.18600
C869        C  0.01533708  0.05951686  0.36763476     0.15800
C870        C  0.98508013  0.05980217  0.38106865    -0.18600
C871        C  0.01490137  0.04106853  0.34783698    -0.20400
C872        C  0.04369362  0.04389648  0.33350541    -0.13000
C873        C  0.07387090  0.06396603  0.33912815     0.03700
C874        C  0.07535788  0.08079184  0.35946091    -0.25100
H875        H  0.01534420  0.11550101  0.42075700     0.08700
H876        H  0.06884991  0.11431098  0.39780014     0.12300
H877        H  0.96159003  0.04488024  0.37623422     0.12300
H878        H  0.99161207  0.02587954  0.34298984     0.12000
H879        H  0.04194318  0.03144969  0.31769848     0.12600
H880        H  0.09824823  0.09723091  0.36351670     0.14500
C881        C  0.18788681  0.37617880  0.45812189    -0.05500
C882        C  0.20808426  0.40781918  0.45862566    -0.05400
C883        C  0.23897912  0.41035688  0.47132605    -0.23600
C884        C  0.25088182  0.38102151  0.48345168     0.18600
C885        C  0.23111356  0.34883766  0.48286566     0.15800
C886        C  0.19945709  0.34682165  0.47053252    -0.18600
C887        C  0.24378133  0.31903069  0.49429025    -0.20400
C888        C  0.27588894  0.32090027  0.50586943    -0.13000
C889        C  0.29540159  0.35285579  0.50683077     0.03700
C890        C  0.28253471  0.38305017  0.49580203    -0.25100
H891        H  0.19979118  0.43081619  0.44927952     0.08700
H892        H  0.25383538  0.43518347  0.47143465     0.12300
H893        H  0.18437036  0.32212312  0.47013441     0.12300
H894        H  0.22916102  0.29406661  0.49397917     0.12000
H895        H  0.28543805  0.29738583  0.51427226     0.12600
H896        H  0.29774704  0.40766887  0.49627954     0.14500
C897        C  0.15508515  0.18170478  0.33838466    -0.05500
C898        C  0.16314925  0.17410149  0.36011223    -0.05400
C899        C  0.16208434  0.20108969  0.37574391    -0.23600
C900        C  0.15371101  0.23621634  0.36976871     0.18600
C901        C  0.14808715  0.24445258  0.34765675     0.15800
C902        C  0.14833211  0.21705281  0.33215105    -0.18600
C903        C  0.14103612  0.27975647  0.34154973    -0.20400
C904        C  0.13757362  0.30632740  0.35727743    -0.13000
C905        C  0.14048699  0.29793089  0.37937937     0.03700
C906        C  0.14942018  0.26295159  0.38553312    -0.25100
H907        H  0.16864340  0.14696454  0.36514829     0.08700
H908        H  0.16695155  0.19433136  0.39256275     0.12300
H909        H  0.14272371  0.22308074  0.31530118     0.12300
H910        H  0.13704469  0.28661844  0.32466064     0.12000
H911        H  0.13039471  0.33305452  0.35222284     0.12600
H912        H  0.15181407  0.25634472  0.40258092     0.14500
C913        C  0.85383467  0.52326995  0.20941277    -0.05500
C914        C  0.88803950  0.51045664  0.21463278    -0.05400
C915        C  0.89212426  0.47749167  0.22509706    -0.23600
C916        C  0.86201690  0.45715728  0.23081462     0.18600
C917        C  0.82752594  0.47041078  0.22604248     0.15800
C918        C  0.82372366  0.50305467  0.21525015    -0.18600
C919        C  0.79726554  0.45096524  0.23228217    -0.20400
C920        C  0.80103526  0.41899483  0.24359533    -0.13000
C921        C  0.83506087  0.40538479  0.24833317     0.03700
C922        C  0.86560511  0.42422113  0.24158905    -0.25100
H923        H  0.91161467  0.52546530  0.21010650     0.08700
H924        H  0.91877634  0.46792125  0.22871607     0.12300
H925        H  0.79718393  0.51279919  0.21141530     0.12300
H926        H  0.77066651  0.46082816  0.22878688     0.12000
H927        H  0.77727113  0.40485085  0.24877070     0.12600
H928        H  0.89192066  0.41405428  0.24555734     0.14500
C929        C  0.92051742  0.36195770  0.32252784    -0.05500
C930        C  0.95284971  0.37325741  0.31325112    -0.05400
C931        C  0.98284736  0.37926975  0.32621632    -0.23600
C932        C  0.98129797  0.37274507  0.34856723     0.18600
C933        C  0.94862941  0.36192707  0.35806933     0.15800
C934        C  0.91818404  0.35756728  0.34505564    -0.18600
C935        C  0.94745231  0.35377006  0.38021666    -0.20400
C936        C  0.97853579  0.35526439  0.39271145    -0.13000
C937        C  0.01111082  0.36589216  0.38343227     0.03700
C938        C  0.01216180  0.37535707  0.36141107    -0.25100
H939        H  0.95513302  0.37642485  0.29586215     0.08700
H940        H  0.00765181  0.38744829  0.31863422     0.12300
H941        H  0.89348424  0.34802593  0.35219835     0.12300
H942        H  0.92270266  0.34531877  0.38775178     0.12000
H943        H  0.97709743  0.34825861  0.40970790     0.12600
H944        H  0.03726491  0.38338339  0.35410877     0.14500
C945        C  0.84878289  0.23405014  0.32630101    -0.05500
C946        C  0.86045310  0.20056205  0.31891938    -0.05400
C947        C  0.86297921  0.17168450  0.33322383    -0.23600
C948        C  0.85470336  0.17610310  0.35524606     0.18600
C949        C  0.84278483  0.20974844  0.36275034     0.15800
C950        C  0.83932698  0.23823540  0.34819124    -0.18600
C951        C  0.83584962  0.21477667  0.38484846    -0.20400
C952        C  0.84230736  0.18725301  0.39954173    -0.13000
C953        C  0.85468670  0.15392320  0.39233828     0.03700
C954        C  0.85977943  0.14805776  0.37007241    -0.25100
H955        H  0.86753433  0.19671094  0.30206684     0.08700
H956        H  0.87222685  0.14615740  0.32717235     0.12300
H957        H  0.83050932  0.26406087  0.35407386     0.12300
H958        H  0.82680562  0.24040877  0.39087359     0.12000
H959        H  0.83849348  0.19224831  0.41667922     0.12600
H960        H  0.87005474  0.12258814  0.36451539     0.14500
C961        C  0.28891700  0.04871893  0.01029725    -0.05500
C962        C  0.27387376  0.01527241  0.00575295    -0.05400
C963        C  0.24215366  0.01285943  0.99398755    -0.23600
C964        C  0.22462239  0.04393145  0.98713533     0.18600
C965        C  0.23902777  0.07777260  0.99229546     0.15800
C966        C  0.27145844  0.07991757  0.00353717    -0.18600
C967        C  0.22075796  0.10881302  0.98608140    -0.20400
C968        C  0.18890718  0.10636193  0.97438555    -0.13000
C969        C  0.17530885  0.07287071  0.96844535     0.03700
C970        C  0.19309474  0.04174032  0.97505772    -0.25100
H971        H  0.28705431  0.99101797  0.01097309     0.08700
H972        H  0.23131121  0.98673213  0.99028015     0.12300
H973        H  0.28281078  0.10579208  0.00738767     0.12300
H974        H  0.23128064  0.13495085  0.99007428     0.12000
H975        H  0.17558545  0.13061800  0.96931690     0.12600
H976        H  0.18248340  0.01578073  0.97066673     0.14500
C977        C  0.64854578  0.90450345  0.26013378    -0.05500
C978        C  0.68149742  0.91585280  0.25174303    -0.05400
C979        C  0.68383799  0.94710948  0.23945347    -0.23600
C980        C  0.65340486  0.96815008  0.23585539     0.18600
C981        C  0.62027311  0.95762129  0.24484476     0.15800
C982        C  0.61790132  0.92546694  0.25657512    -0.18600
C983        C  0.59020184  0.97952718  0.24197625    -0.20400
C984        C  0.59283636  0.01126566  0.23009662    -0.13000
C985        C  0.62535501  0.02127516  0.22044445     0.03700
C986        C  0.65558822  0.99953930  0.22344355    -0.25100
H987        H  0.70536620  0.90005615  0.25432109     0.08700
H988        H  0.70949086  0.95489385  0.23283007     0.12300
H989        H  0.59246287  0.91707295  0.26326696     0.12300
H990        H  0.56464769  0.97210689  0.24889827     0.12000
H991        H  0.56918089  0.02756285  0.22797507     0.12600
H992        H  0.68088554  0.00723764  0.21627258     0.14500
C993        C  0.70290819  0.16131262  0.21742521    -0.05500
C994        C  0.73963099  0.15544235  0.21436089    -0.05400
C995        C  0.76468917  0.17921865  0.22284686    -0.23600
C996        C  0.75342469  0.20941324  0.23441217     0.18600
C997        C  0.71658370  0.21536128  0.23786378     0.15800
C998        C  0.69157829  0.19117351  0.22945939    -0.18600
C999        C  0.70541272  0.24555912  0.24950759    -0.20400
C1000       C  0.73058867  0.26928385  0.25803495    -0.13000
C1001       C  0.76727332  0.26344671  0.25478187     0.03700
C1002       C  0.77844071  0.23361504  0.24270130    -0.25100
H1003       H  0.74898105  0.13281351  0.20501631     0.08700
H1004       H  0.79286100  0.17423503  0.22012287     0.12300
H1005       H  0.66329186  0.19626166  0.23169669     0.12300
H1006       H  0.67725178  0.25059135  0.25224000     0.12000
H1007       H  0.72139830  0.29199292  0.26736303     0.12600
H1008       H  0.80669958  0.22858531  0.24028789     0.14500
C1009       C  0.46885227  0.06508010  0.07997096    -0.05500
C1010       C  0.49862799  0.08425317  0.07248274    -0.05400
C1011       C  0.52873422  0.08839518  0.08561596    -0.23600
C1012       C  0.52917556  0.07403044  0.10658840     0.18600
C1013       C  0.49935293  0.05453445  0.11419660     0.15800
C1014       C  0.46969826  0.04970554  0.10071926    -0.18600
C1015       C  0.49905832  0.04145503  0.13547900    -0.20400
C1016       C  0.52738813  0.04903480  0.14942612    -0.13000
C1017       C  0.55688032  0.06852795  0.14200410     0.03700
C1018       C  0.55818361  0.08018955  0.12044204    -0.25100
H1019       H  0.49856565  0.09617599  0.05650474     0.08700
H1020       H  0.55128690  0.10355277  0.07957919     0.12300
H1021       H  0.44673264  0.03508819  0.10671468     0.12300
H1022       H  0.47633871  0.02660469  0.14157259     0.12000
H1023       H  0.52604160  0.04029946  0.16613256     0.12600
H1024       H  0.58070039  0.09598981  0.11492753     0.14500
C1025       C  0.34008574  0.39920647  0.21729717    -0.05500
C1026       C  0.32844692  0.39752414  0.23887041    -0.05400
C1027       C  0.32731052  0.42834267  0.25168112    -0.23600
C1028       C  0.33874799  0.46122759  0.24327848     0.18600
C1029       C  0.35135721  0.46298651  0.22169644     0.15800
C1030       C  0.35136149  0.43205343  0.20870744    -0.18600
C1031       C  0.36403411  0.49558296  0.21357756    -0.20400
C1032       C  0.36411238  0.52614392  0.22664203    -0.13000
C1033       C  0.35089169  0.52494814  0.24795230     0.03700
C1034       C  0.33811510  0.49227214  0.25614148    -0.25100
H1035       H  0.31978434  0.37235021  0.24571257     0.08700
H1036       H  0.31778249  0.42639452  0.26821331     0.12300
H1037       H  0.36080832  0.43330024  0.19211713     0.12300
H1038       H  0.37406426  0.49741593  0.19714996     0.12000
H1039       H  0.37412008  0.55091767  0.21995184     0.12600
H1040       H  0.32822943  0.49086405  0.27262875     0.14500
C1041       C  0.21481578  0.15295206  0.25837376    -0.05500
C1042       C  0.25188084  0.14781605  0.25993017    -0.05400
C1043       C  0.27543227  0.17162284  0.24987721    -0.23600
C1044       C  0.26224340  0.20107911  0.23830019     0.18600
C1045       C  0.22503254  0.20593064  0.23617061     0.15800
C1046       C  0.20164740  0.18170372  0.24601545    -0.18600
C1047       C  0.21179342  0.23528495  0.22454236    -0.20400
C1048       C  0.23528682  0.25961608  0.21496080    -0.13000
C1049       C  0.27235583  0.25512656  0.21702301     0.03700
C1050       C  0.28561040  0.22578781  0.22883989    -0.25100
H1051       H  0.26265379  0.12596391  0.26936428     0.08700
H1052       H  0.30395153  0.16741311  0.25152349     0.12300
H1053       H  0.17309861  0.18607759  0.24466583     0.12300
H1054       H  0.18327030  0.23932242  0.22276880     0.12000
H1055       H  0.22448098  0.28170676  0.20574763     0.12600
H1056       H  0.31418349  0.22165006  0.23028175     0.14500
C1057       C  0.34551715  0.22039001  0.14506970    -0.05500
C1058       C  0.36726197  0.19164515  0.15135395    -0.05400
C1059       C  0.36954733  0.16103348  0.13855865    -0.23600
C1060       C  0.35059987  0.15887407  0.11905057     0.18600
C1061       C  0.32842448  0.18752045  0.11257112     0.15800
C1062       C  0.32556847  0.21786662  0.12581152    -0.18600
C1063       C  0.31077622  0.18590800  0.09252832    -0.20400
C1064       C  0.31653207  0.15699664  0.07860724    -0.13000
C1065       C  0.33871181  0.12872644  0.08497508     0.03700
C1066       C  0.35486790  0.12928149  0.10542500    -0.25100
H1067       H  0.38272172  0.19289593  0.16615284     0.08700
H1068       H  0.38682073  0.13940147  0.14366633     0.12300
H1069       H  0.30885608  0.23997838  0.12073801     0.12300
H1070       H  0.29381806  0.20767166  0.08723869     0.12000
H1071       H  0.30442300  0.15704906  0.06267408     0.12600
H1072       H  0.37283190  0.10785281  0.11003155     0.14500
C1073       C  0.68457195  0.36891761  0.00751391    -0.05500
C1074       C  0.69525333  0.40305294  0.00077094    -0.05400
C1075       C  0.72640024  0.40751686  0.98852659    -0.23600
C1076       C  0.74787612  0.37798336  0.98338312     0.18600
C1077       C  0.73802917  0.34371396  0.99091215     0.15800
C1078       C  0.70609297  0.33931356  0.00260305    -0.18600
C1079       C  0.76023003  0.31442913  0.98653550    -0.20400
C1080       C  0.79136939  0.31880622  0.97429708    -0.13000
C1081       C  0.80058168  0.35241543  0.96590250     0.03700
C1082       C  0.77884427  0.38203868  0.97072137    -0.25100
H1083       H  0.67903161  0.42616846  0.00460323     0.08700
H1084       H  0.73368254  0.43403505  0.98308527     0.12300
H1085       H  0.69822121  0.31302283  0.00817974     0.12300
H1086       H  0.75333392  0.28805948  0.99239829     0.12000
H1087       H  0.80770619  0.29563023  0.97083402     0.12600
H1088       H  0.78594446  0.40818843  0.96455285     0.14500
C1089       C  0.63722099  0.28182114  0.08093246    -0.05500
C1090       C  0.64804608  0.24858850  0.07267685    -0.05400
C1091       C  0.65269019  0.21938958  0.08646392    -0.23600
C1092       C  0.64537372  0.22267217  0.10865388     0.18600
C1093       C  0.63555239  0.25632022  0.11721228     0.15800
C1094       C  0.63247740  0.28591999  0.10336640    -0.18600
C1095       C  0.62679232  0.25929616  0.13922674    -0.20400
C1096       C  0.62619312  0.22898909  0.15241336    -0.13000
C1097       C  0.63529524  0.19537112  0.14398226     0.03700
C1098       C  0.64590662  0.19255358  0.12220217    -0.25100
H1099       H  0.65163468  0.24490127  0.05540314     0.08700
H1100       H  0.66022814  0.19384696  0.07961075     0.12300
H1101       H  0.62343201  0.31131428  0.10977756     0.12300
H1102       H  0.61922355  0.28483055  0.14607488     0.12000
H1103       H  0.61845905  0.23179442  0.16924035     0.12600
H1104       H  0.65287652  0.16667249  0.11556427     0.14500
C1105       C  0.41645623  0.34757810  0.14016434    -0.05500
C1106       C  0.44786814  0.36345535  0.14788072    -0.05400
C1107       C  0.47707859  0.36829846  0.13419549    -0.23600
C1108       C  0.47569109  0.35635179  0.11271216     0.18600
C1109       C  0.44410177  0.34055558  0.10462929     0.15800
C1110       C  0.41428563  0.33690899  0.11834794    -0.18600
C1111       C  0.44352239  0.32750890  0.08328144    -0.20400
C1112       C  0.47408577  0.32980659  0.07020135    -0.13000
C1113       C  0.50542138  0.34570740  0.07817524     0.03700
C1114       C  0.50582451  0.35913852  0.09941423    -0.25100
H1115       H  0.45007321  0.37131717  0.16471573     0.08700
H1116       H  0.50118293  0.38029132  0.14062413     0.12300
H1117       H  0.39036116  0.32373223  0.11250962     0.12300
H1118       H  0.41963706  0.31513758  0.07681596     0.12000
H1119       H  0.47314154  0.31947150  0.05382410     0.12600
H1120       H  0.52995137  0.37118391  0.10581278     0.14500
C1121       C  0.68286627  0.87288377  0.95936407    -0.05500
C1122       C  0.69772786  0.90690546  0.96249215    -0.05400
C1123       C  0.72985504  0.91096471  0.97376564    -0.23600
C1124       C  0.74814049  0.88094325  0.98157863     0.18600
C1125       C  0.73406206  0.84647599  0.97771082     0.15800
C1126       C  0.70118634  0.84270805  0.96698333    -0.18600
C1127       C  0.75307259  0.81638401  0.98470014    -0.20400
C1128       C  0.78525914  0.82037099  0.99588675    -0.13000
C1129       C  0.79863101  0.85449315  0.00069325     0.03700
C1130       C  0.78006381  0.88475490  0.99333704    -0.25100
H1131       H  0.68403913  0.93044689  0.95659215     0.08700
H1132       H  0.74038442  0.93756090  0.97637084     0.12300
H1133       H  0.69013189  0.81634014  0.96423569     0.12300
H1134       H  0.74289233  0.78976747  0.98169300     0.12000
H1135       H  0.79908037  0.79671524  0.00149167     0.12600
H1136       H  0.79040173  0.91117431  0.99682106     0.14500
C1137       C  0.53503006  0.93230055  0.96369593    -0.05500
C1138       C  0.53344909  0.96858081  0.95805540    -0.05400
C1139       C  0.50804256  0.99102466  0.96752143    -0.23600
C1140       C  0.48366661  0.97750416  0.98269549     0.18600
C1141       C  0.48513733  0.94111847  0.98858957     0.15800
C1142       C  0.51091458  0.91883424  0.97916660    -0.18600
C1143       C  0.46069377  0.92760724  0.00373885    -0.20400
C1144       C  0.43565021  0.95020775  0.01344585    -0.13000
C1145       C  0.43447868  0.98660529  0.00803153     0.03700
C1146       C  0.45819323  0.99989744  0.99229817    -0.25100
H1147       H  0.55141007  0.97947833  0.94599411     0.08700
H1148       H  0.50725188  0.01887734  0.96282871     0.12300
H1149       H  0.51149525  0.89078200  0.98344849     0.12300
H1150       H  0.46134840  0.89971524  0.00835568     0.12000
H1151       H  0.41778637  0.93937435  0.02558315     0.12600
H1152       H  0.45771430  0.02796310  0.98804729     0.14500
C1153       C  0.35401575  0.02122138  0.72019177    -0.05500
C1154       C  0.38699414  0.00465185  0.72424713    -0.05400
C1155       C  0.38843458  0.97190008  0.73502389    -0.23600
C1156       C  0.35694220  0.95568221  0.74241098     0.18600
C1157       C  0.32370868  0.97280071  0.73903639     0.15800
C1158       C  0.32240490  0.00514852  0.72759527    -0.18600
C1159       C  0.29238421  0.95732400  0.74724215    -0.20400
C1160       C  0.29394389  0.92514669  0.75864722    -0.13000
C1161       C  0.32666915  0.90747217  0.76148928     0.03700
C1162       C  0.35811385  0.92278799  0.75324904    -0.25100
H1163       H  0.41161496  0.01662064  0.71855108     0.08700
H1164       H  0.41414735  0.95930077  0.73760768     0.12300
H1165       H  0.29692295  0.01804726  0.72467383     0.12300
H1166       H  0.26674128  0.97020347  0.74496103     0.12000
H1167       H  0.26947298  0.91371396  0.76494384     0.12600
H1168       H  0.38353117  0.90948597  0.75570965     0.14500
C1169       C  0.40664469  0.85386379  0.83415389    -0.05500
C1170       C  0.43703906  0.87093675  0.82590912    -0.05400
C1171       C  0.46653344  0.87691479  0.83914023    -0.23600
C1172       C  0.46641324  0.86474202  0.86058491     0.18600
C1173       C  0.43571497  0.84787467  0.86915361     0.15800
C1174       C  0.40556449  0.84327842  0.85595527    -0.18600
C1175       C  0.43643733  0.83446007  0.89038604    -0.20400
C1176       C  0.46759988  0.83706902  0.90281340    -0.13000
C1177       C  0.49810847  0.85376047  0.89429423     0.03700
C1178       C  0.49706421  0.86799812  0.87328541    -0.25100
H1179       H  0.43824194  0.87879979  0.80903733     0.08700
H1180       H  0.48995043  0.88974590  0.83235700     0.12300
H1181       H  0.38234135  0.82926401  0.86212833     0.12300
H1182       H  0.41321547  0.82131593  0.89718781     0.12000
H1183       H  0.46784381  0.82615593  0.91905393     0.12600
H1184       H  0.52058447  0.88068544  0.86650043     0.14500
C1185       C  0.30212155  0.56932092  0.96648939    -0.05500
C1186       C  0.29579956  0.60199142  0.97703019    -0.05400
C1187       C  0.26379356  0.60790970  0.98823154    -0.23600
C1188       C  0.23777908  0.58102805  0.98939831     0.18600
C1189       C  0.24435295  0.54771412  0.97935220     0.15800
C1190       C  0.27619779  0.54225655  0.96777387    -0.18600
C1191       C  0.21898393  0.52034299  0.98108685    -0.20400
C1192       C  0.18752650  0.52578223  0.99281305    -0.13000
C1193       C  0.18041702  0.55894479  0.00243740     0.03700
C1194       C  0.20544518  0.58668925  0.00054077    -0.25100
H1195       H  0.31522622  0.62335055  0.97611920     0.08700
H1196       H  0.25936095  0.63352905  0.99593028     0.12300
H1197       H  0.28081238  0.51690425  0.95976934     0.12300
H1198       H  0.22362200  0.49462694  0.97355484     0.12000
H1199       H  0.16840581  0.50418973  0.99414255     0.12600
H1200       H  0.20012798  0.61221060  0.00818607     0.14500
C1201       C  0.53760520  0.42751571  0.00790495    -0.05500
C1202       C  0.53860791  0.46408151  0.01285542    -0.05400
C1203       C  0.51441421  0.48765863  0.00329398    -0.23600
C1204       C  0.48865075  0.47504044  0.98870695     0.18600
C1205       C  0.48728181  0.43833293  0.98359835     0.15800
C1206       C  0.51187955  0.41483465  0.99313828    -0.18600
C1207       C  0.46134931  0.42582673  0.96903210    -0.20400
C1208       C  0.43769839  0.44968788  0.95910718    -0.13000
C1209       C  0.43949652  0.48637789  0.96369134     0.03700
C1210       C  0.46464321  0.49868747  0.97888531    -0.25100
H1211       H  0.55790603  0.47443440  0.02430639     0.08700
H1212       H  0.51577150  0.51575402  0.00737377     0.12300
H1213       H  0.51049051  0.38659995  0.98939549     0.12300
H1214       H  0.45979239  0.39771548  0.96501676     0.12000
H1215       H  0.41866717  0.43955889  0.94741738     0.12600
H1216       H  0.46637298  0.52691538  0.98259167     0.14500
C1217       C  0.34527600  0.63213981  0.88814443    -0.05500
C1218       C  0.32527471  0.66075072  0.89633691    -0.05400
C1219       C  0.31694889  0.68978168  0.88309507    -0.23600
C1220       C  0.32973314  0.69106139  0.86174389     0.18600
C1221       C  0.34966607  0.66205772  0.85337393     0.15800
C1222       C  0.35668946  0.63240254  0.86653456    -0.18600
C1223       C  0.36366801  0.66394870  0.83235036    -0.20400
C1224       C  0.35888051  0.69471144  0.81993455    -0.13000
C1225       C  0.33950065  0.72382576  0.82819253     0.03700
C1226       C  0.32429958  0.72149136  0.84896832    -0.25100
H1227       H  0.31685998  0.66094442  0.91313453     0.08700
H1228       H  0.30179885  0.71183104  0.88980151     0.12300
H1229       H  0.37297435  0.61061953  0.86045933     0.12300
H1230       H  0.37911336  0.64203590  0.82572942     0.12000
H1231       H  0.37067103  0.69586088  0.80392385     0.12600
H1232       H  0.30948592  0.74389464  0.85554626     0.14500
C1233       C  0.63523812  0.40279115  0.71416101    -0.05500
C1234       C  0.60121104  0.41404546  0.72093539    -0.05400
C1235       C  0.59710404  0.44510235  0.73324592    -0.23600
C1236       C  0.62703810  0.46515223  0.73940997     0.18600
C1237       C  0.66159198  0.45324740  0.73354471     0.15800
C1238       C  0.66545983  0.42240947  0.72069180    -0.18600
C1239       C  0.69156678  0.47262322  0.74049258    -0.20400
C1240       C  0.68729960  0.50380154  0.75275592    -0.13000
C1241       C  0.65300767  0.51664496  0.75784347     0.03700
C1242       C  0.62295542  0.49702314  0.75120252    -0.25100
H1243       H  0.57758427  0.39939562  0.71610712     0.08700
H1244       H  0.57045342  0.45360883  0.73778497     0.12300
H1245       H  0.69188623  0.41370043  0.71576665     0.12300
H1246       H  0.71829308  0.46376390  0.73636554     0.12000
H1247       H  0.71082361  0.51843082  0.75780116     0.12600
H1248       H  0.59642176  0.50642597  0.75537751     0.14500
C1249       C  0.57871789  0.56723855  0.83731039    -0.05500
C1250       C  0.59011955  0.56924352  0.85896999    -0.05400
C1251       C  0.56548839  0.56585231  0.87598792    -0.23600
C1252       C  0.52911346  0.56010775  0.87161054     0.18600
C1253       C  0.51793663  0.55589257  0.84987321     0.15800
C1254       C  0.54269196  0.55955959  0.83295598    -0.18600
C1255       C  0.48190020  0.54935700  0.84530739    -0.20400
C1256       C  0.45691021  0.54785488  0.86203289    -0.13000
C1257       C  0.46726657  0.55350641  0.88362729     0.03700
C1258       C  0.50355246  0.55937963  0.88840939    -0.25100
H1259       H  0.61766947  0.57550142  0.86272348     0.08700
H1260       H  0.57470800  0.56883644  0.89252983     0.12300
H1261       H  0.53360026  0.55788703  0.81630247     0.12300
H1262       H  0.47291630  0.54594452  0.82874369     0.12000
H1263       H  0.42910098  0.54342051  0.85799376     0.12600
H1264       H  0.51176609  0.56345184  0.90507066     0.14500
C1265       C  0.62943894  0.69928648  0.82523118    -0.05500
C1266       C  0.60850763  0.72806704  0.81806446    -0.05400
C1267       C  0.60424298  0.75840175  0.83107696    -0.23600
C1268       C  0.62026875  0.76004612  0.85161701     0.18600
C1269       C  0.64112151  0.73100907  0.85896442     0.15800
C1270       C  0.64596565  0.70118747  0.84563086    -0.18600
C1271       C  0.65589094  0.73171840  0.87982253    -0.20400
C1272       C  0.64910787  0.76045771  0.89359520    -0.13000
C1273       C  0.62859049  0.78942884  0.88644677     0.03700
C1274       C  0.61476561  0.78951984  0.86529464    -0.25100
H1275       H  0.59555489  0.72714006  0.80239414     0.08700
H1276       H  0.58793601  0.78028276  0.82524514     0.12300
H1277       H  0.66181097  0.67893367  0.85145046     0.12300
H1278       H  0.67169753  0.70952575  0.88572977     0.12000
H1279       H  0.65937563  0.75986477  0.90999288     0.12600
H1280       H  0.59801050  0.81148023  0.86001172     0.14500
C1281       C  0.79881668  0.56939817  0.50586801    -0.05500
C1282       C  0.78331659  0.60286063  0.50183625    -0.05400
C1283       C  0.75055013  0.60540022  0.49107483    -0.23600
C1284       C  0.73331306  0.57453841  0.48358141     0.18600
C1285       C  0.74914604  0.54075734  0.48718237     0.15800
C1286       C  0.78140178  0.53836313  0.49872130    -0.18600
C1287       C  0.73277152  0.51004037  0.47882610    -0.20400
C1288       C  0.70129523  0.51278655  0.46675745    -0.13000
C1289       C  0.68506168  0.54612455  0.46342557     0.03700
C1290       C  0.70094500  0.57690825  0.47214607    -0.25100
H1291       H  0.79630478  0.62702896  0.50736785     0.08700
H1292       H  0.73892988  0.63151766  0.48836616     0.12300
H1293       H  0.79346453  0.51248578  0.50164529     0.12300
H1294       H  0.74462706  0.48396616  0.48130668     0.12000
H1295       H  0.68940762  0.48878615  0.46015400     0.12600
H1296       H  0.68877788  0.60277635  0.46935728     0.14500
C1297       C  0.04200885  0.44069927  0.45471504    -0.05500
C1298       C  0.04679727  0.47776775  0.45288451    -0.05400
C1299       C  0.02259756  0.50137638  0.46259757    -0.23600
C1300       C  0.99297881  0.48827882  0.47407701     0.18600
C1301       C  0.98758554  0.45104355  0.47559592     0.15800
C1302       C  0.01214375  0.42758360  0.46601674    -0.18600
C1303       C  0.95795217  0.43781369  0.48692343    -0.20400
C1304       C  0.93474947  0.46116892  0.49755932    -0.13000
C1305       C  0.94048871  0.49818930  0.49684042     0.03700
C1306       C  0.96918853  0.51165100  0.48454234    -0.25100
H1307       H  0.06929377  0.48848410  0.44396819     0.08700
H1308       H  0.02710123  0.52985039  0.46118460     0.12300
H1309       H  0.00769701  0.39904673  0.46712212     0.12300
H1310       H  0.95326940  0.40933756  0.48806688     0.12000
H1311       H  0.91285129  0.45017788  0.50688877     0.12600
H1312       H  0.97405339  0.54016202  0.48398122     0.14500
C1313       C  0.13296893  0.52078960  0.71748030    -0.05500
C1314       C  0.09949530  0.50933535  0.72506188    -0.05400
C1315       C  0.09643501  0.47839854  0.73742927    -0.23600
C1316       C  0.12694373  0.45877468  0.74288191     0.18600
C1317       C  0.16102222  0.47071306  0.73607491     0.15800
C1318       C  0.16379076  0.50139826  0.72303295    -0.18600
C1319       C  0.19157623  0.45166234  0.74244861    -0.20400
C1320       C  0.18826793  0.42080009  0.75508851    -0.13000
C1321       C  0.15436162  0.40810263  0.76103161     0.03700
C1322       C  0.12382852  0.42731003  0.75497033    -0.25100
H1323       H  0.07544864  0.52395091  0.72095986     0.08700
H1324       H  0.07019121  0.46979653  0.74269596     0.12300
H1325       H  0.18973864  0.51043001  0.71747789     0.12300
H1326       H  0.21794366  0.46054476  0.73761435     0.12000
H1327       H  0.21210327  0.40626624  0.75970032     0.12600
H1328       H  0.09763637  0.41786020  0.75983714     0.14500
C1329       C  0.26023491  0.76340396  0.75818860    -0.05500
C1330       C  0.22348606  0.76500952  0.76271398    -0.05400
C1331       C  0.19994884  0.74088255  0.75302960    -0.23600
C1332       C  0.21292388  0.71455075  0.73890722     0.18600
C1333       C  0.24981264  0.71302035  0.73412332     0.15800
C1334       C  0.27309803  0.73765048  0.74358288    -0.18600
C1335       C  0.26293373  0.68657410  0.72017873    -0.20400
C1336       C  0.23959287  0.66213602  0.71072327    -0.13000
C1337       C  0.20277993  0.66373316  0.71508708     0.03700
C1338       C  0.18965948  0.68982177  0.72941589    -0.25100
H1339       H  0.21304789  0.78446149  0.77405622     0.08700
H1340       H  0.17172435  0.74244788  0.75684783     0.12300
H1341       H  0.30146661  0.73586236  0.74015852     0.12300
H1342       H  0.29118837  0.68498957  0.71643253     0.12000
H1343       H  0.25029280  0.64243220  0.69963221     0.12600
H1344       H  0.16127134  0.69146857  0.73278699     0.14500
C1345       C  0.06446216  0.56251061  0.63833102    -0.05500
C1346       C  0.03314364  0.54570331  0.64544552    -0.05400
C1347       C  0.00568841  0.53826313  0.63084550    -0.23600
C1348       C  0.00867926  0.54899586  0.60916023     0.18600
C1349       C  0.04050732  0.56536215  0.60181356     0.15800
C1350       C  0.06865874  0.57105473  0.61635961    -0.18600
C1351       C  0.04272799  0.57781132  0.58043376    -0.20400
C1352       C  0.01308782  0.57556498  0.56675678    -0.13000
C1353       C  0.98123595  0.55985250  0.57406156     0.03700
C1354       C  0.97959429  0.54559097  0.59506960    -0.25100
H1355       H  0.02958173  0.53927029  0.66241770     0.08700
H1356       H  0.98143029  0.52581945  0.63673830     0.12300
H1357       H  0.09259568  0.58479065  0.61100377     0.12300
H1358       H  0.06686147  0.59054739  0.57457717     0.12000
H1359       H  0.01487524  0.58655037  0.55056687     0.12600
H1360       H  0.95494749  0.53378203  0.60089282     0.14500
C1361       C  0.83651157  0.90860457  0.71225133    -0.05500
C1362       C  0.80331052  0.92096378  0.71980734    -0.05400
C1363       C  0.80081768  0.95255006  0.73176990    -0.23600
C1364       C  0.83140063  0.97300650  0.73592182     0.18600
C1365       C  0.86493120  0.96126252  0.72804640     0.15800
C1366       C  0.86740174  0.92875707  0.71659047    -0.18600
C1367       C  0.89523358  0.98255184  0.73150332    -0.20400
C1368       C  0.89237784  0.01498020  0.74268096    -0.13000
C1369       C  0.85931378  0.02650371  0.75099857     0.03700
C1370       C  0.82890028  0.00520043  0.74758795    -0.25100
H1371       H  0.77917702  0.90595935  0.71652941     0.08700
H1372       H  0.77486260  0.96122028  0.73752535     0.12300
H1373       H  0.89302161  0.91976619  0.71044608     0.12300
H1374       H  0.92112434  0.97423055  0.72545980     0.12000
H1375       H  0.91621762  0.03086143  0.74509329     0.12600
H1376       H  0.80317946  0.01395763  0.75370079     0.14500
C1377       C  0.78122510  0.76165028  0.71661194    -0.05500
C1378       C  0.79669120  0.75050739  0.73625540    -0.05400
C1379       C  0.78013937  0.72465759  0.74912533    -0.23600
C1380       C  0.74794672  0.70903404  0.74249567     0.18600
C1381       C  0.73190686  0.72030034  0.72290377     0.15800
C1382       C  0.74843985  0.74676855  0.71019653    -0.18600
C1383       C  0.69979615  0.70457448  0.71622990    -0.20400
C1384       C  0.68337379  0.67849183  0.72898847    -0.13000
C1385       C  0.69878518  0.66734863  0.74863711     0.03700
C1386       C  0.73142285  0.68252237  0.75516945    -0.25100
H1387       H  0.82202605  0.76143319  0.74152464     0.08700
H1388       H  0.79281955  0.71650559  0.76410919     0.12300
H1389       H  0.73651880  0.75474811  0.69494669     0.12300
H1390       H  0.68714520  0.71271846  0.70124095     0.12000
H1391       H  0.65816571  0.66742661  0.72362326     0.12600
H1392       H  0.74338933  0.67454241  0.77040986     0.14500
C1393       C  0.84304174  0.73936238  0.63259282    -0.05500
C1394       C  0.84051550  0.75059080  0.61095186    -0.05400
C1395       C  0.84301073  0.72614830  0.59406160    -0.23600
C1396       C  0.84730124  0.68983021  0.59851276     0.18600
C1397       C  0.84862384  0.67788580  0.62026547     0.15800
C1398       C  0.84707559  0.70292627  0.63728674    -0.18600
C1399       C  0.85186592  0.64121170  0.62445165    -0.20400
C1400       C  0.85531467  0.61691742  0.60730741    -0.13000
C1401       C  0.85597813  0.62900929  0.58575496     0.03700
C1402       C  0.85115490  0.66542768  0.58150300    -0.25100
H1403       H  0.83721534  0.77859922  0.60710386     0.08700
H1404       H  0.84173987  0.73570513  0.57749410     0.12300
H1405       H  0.84846480  0.69417125  0.65401193     0.12300
H1406       H  0.85256262  0.63140647  0.64097014     0.12000
H1407       H  0.85924847  0.58892390  0.61092743     0.12600
H1408       H  0.85140535  0.67493651  0.56489472     0.14500
C1409       C  0.30315762  0.84764115  0.46912519    -0.05500
C1410       C  0.29389084  0.81453151  0.47820937    -0.05400
C1411       C  0.26161692  0.81035105  0.48945340    -0.23600
C1412       C  0.23831428  0.83939554  0.49217042     0.18600
C1413       C  0.24826153  0.87323425  0.48400217     0.15800
C1414       C  0.28031666  0.87702176  0.47232545    -0.18600
C1415       C  0.22579986  0.90266568  0.48748055    -0.20400
C1416       C  0.19359561  0.89857215  0.49870022    -0.13000
C1417       C  0.18273527  0.86485830  0.50608852     0.03700
C1418       C  0.20523816  0.83526503  0.50282721    -0.25100
H1419       H  0.31101672  0.79152253  0.47593327     0.08700
H1420       H  0.25470633  0.78430702  0.49581250     0.12300
H1421       H  0.28738973  0.90279886  0.46559595     0.12300
H1422       H  0.23314754  0.92886763  0.48154083     0.12000
H1423       H  0.17672166  0.92169650  0.50126662     0.12600
H1424       H  0.19728700  0.80931724  0.50891496     0.14500
C1425       C  0.94509875  0.01685334  0.47531243    -0.05500
C1426       C  0.95291794  0.02562154  0.49693392    -0.05400
C1427       C  0.97777606  0.00561859  0.50874237    -0.23600
C1428       C  0.99585025  0.97701920  0.49894540     0.18600
C1429       C  0.98814873  0.96812902  0.47716973     0.15800
C1430       C  0.96253223  0.98775952  0.46562295    -0.18600
C1431       C  0.00639379  0.93989297  0.46721223    -0.20400
C1432       C  0.03112031  0.91977082  0.47890352    -0.13000
C1433       C  0.03840246  0.92770945  0.50069712     0.03700
C1434       C  0.02116423  0.95689465  0.51054725    -0.25100
H1435       H  0.94010150  0.04827676  0.50459743     0.08700
H1436       H  0.98327204  0.01286714  0.52540829     0.12300
H1437       H  0.95728996  0.98136112  0.44878768     0.12300
H1438       H  0.00105417  0.93292910  0.45048649     0.12000
H1439       H  0.04401325  0.89736855  0.47102074     0.12600
H1440       H  0.02625617  0.96293945  0.52744689     0.14500
C1441       C  0.13088900  0.69393642  0.64062061    -0.05500
C1442       C  0.11339966  0.72472618  0.64818839    -0.05400
C1443       C  0.10994226  0.75473848  0.63501274    -0.23600
C1444       C  0.12328101  0.75430681  0.61382942     0.18600
C1445       C  0.14111908  0.72356095  0.60600321     0.15800
C1446       C  0.14541502  0.69376352  0.61960745    -0.18600
C1447       C  0.15297641  0.72269252  0.58443837    -0.20400
C1448       C  0.14585634  0.75135866  0.57057462    -0.13000
C1449       C  0.12808157  0.78182973  0.57829298     0.03700
C1450       C  0.11765267  0.78354341  0.60006504    -0.25100
H1451       H  0.10216482  0.72555726  0.66435534     0.08700
H1452       H  0.09604149  0.77797365  0.64122137     0.12300
H1453       H  0.15867747  0.67002231  0.61356445     0.12300
H1454       H  0.16652385  0.69935000  0.57808985     0.12000
H1455       H  0.15368898  0.74956120  0.55371202     0.12600
H1456       H  0.10311619  0.80669790  0.60588681     0.14500
C1457       C  0.90194075  0.86544459  0.62983814    -0.05500
C1458       C  0.93151502  0.88569129  0.63637216    -0.05400
C1459       C  0.96118809  0.88927581  0.62289351    -0.23600
C1460       C  0.96218079  0.87184107  0.60282276     0.18600
C1461       C  0.93200755  0.85264791  0.59553153     0.15800
C1462       C  0.90163978  0.85006387  0.60900574    -0.18600
C1463       C  0.93377431  0.83461511  0.57555989    -0.20400
C1464       C  0.96552723  0.83460456  0.56338581    -0.13000
C1465       C  0.99589208  0.85288582  0.57089849     0.03700
C1466       C  0.99357712  0.87201663  0.59046941    -0.25100
H1467       H  0.93252868  0.89690008  0.65254597     0.08700
H1468       H  0.98415461  0.90403401  0.62869730     0.12300
H1469       H  0.87934014  0.83343231  0.60417648     0.12300
H1470       H  0.91093161  0.81980350  0.56963082     0.12000
H1471       H  0.96641501  0.82010473  0.54821488     0.12600
H1472       H  0.01664871  0.88639346  0.59649397     0.14500
loop_ 
_geom_bond_atom_site_label_1 
_geom_bond_atom_site_label_2 
_geom_bond_distance 
_geom_bond_site_symmetry_2 
_ccdc_geom_bond_type 
O1            V9   1.914       .  S
O1           C11   1.267       .  A
O2            V9   1.921       .  S
O2           C12   1.270       .  A
O3            V9   1.891       .  S
O3           C13   1.263       .  A
O4            V9   1.891       .  S
O4           C14   1.261       .  A
O5           V10   1.909       .  S
O5           C14   1.267       .  A
O6           V10   1.908       .  S
O6           C13   1.266       .  A
O7           V10   1.886       .  S
O7           C12   1.262       .  A
O8           V10   1.899       .  S
O8           C11   1.263       .  A
V9           V10   2.085       .  T
C11        C1417   1.478       .  S
C12        C1465   1.486   1_455  S
C13        C1433   1.477       .  S
C14        C1449   1.470       .  S
O15          V23   1.917       .  S
O15          C25   1.268       .  A
O16          V23   1.918       .  S
O16          C26   1.269       .  A
O17          V23   1.881       .  S
O17          C27   1.259       .  A
O18          V23   1.888       .  S
O18          C28   1.261       .  A
O19          V24   1.918       .  S
O19          C28   1.270       .  A
O20          V24   1.921       .  S
O20          C27   1.269       .  A
O21          V24   1.880       .  S
O21          C26   1.259       .  A
O22          V24   1.896       .  S
O22          C25   1.263       .  A
V23          V24   2.087       .  T
C25        C1361   1.481       .  S
C26        C1393   1.469       .  S
C27        C1457   1.471       .  S
C28        C1377   1.482       .  S
O29          V37   1.889       .  S
O29          C39   1.262       .  A
O30          V37   1.891       .  S
O30          C40   1.263       .  A
O31          V37   1.892       .  S
O31          C41   1.263       .  A
O32          V37   1.893       .  S
O32          C42   1.264       .  A
O33          V38   1.894       .  S
O33          C42   1.264       .  A
O34          V38   1.898       .  S
O34          C41   1.263       .  A
O35          V38   1.907       .  S
O35          C40   1.266       .  A
O36          V38   1.911       .  S
O36          C39   1.267       .  A
V37          V38   2.088       .  T
C39        C1313   1.474       .  S
C40        C1441   1.477       .  S
C41        C1345   1.463       .  S
C42        C1337   1.473       .  S
O43          V51   1.902       .  S
O43          C53   1.265       .  A
O44          V51   1.900       .  S
O44          C54   1.265       .  A
O45          V51   1.898       .  S
O45          C55   1.264       .  A
O46          V51   1.893       .  S
O46          C56   1.264       .  A
O47          V52   1.905       .  S
O47          C56   1.265       .  A
O48          V52   1.899       .  S
O48          C55   1.266       .  A
O49          V52   1.893       .  S
O49          C54   1.263       .  A
O50          V52   1.900       .  S
O50          C53   1.264       .  A
V51          V52   2.087       .  T
C53        C1281   1.474       .  S
C54        C1353   1.472       .  S
C55        C1305   1.479       .  S
C56        C1401   1.475       .  S
O57          V65   1.907       .  S
O57          C67   1.266       .  A
O58          V65   1.909       .  S
O58          C68   1.267       .  A
O59          V65   1.894       .  S
O59          C69   1.263       .  A
O60          V65   1.890       .  S
O60          C70   1.263       .  A
O61          V66   1.914       .  S
O61          C70   1.268       .  A
O62          V66   1.912       .  S
O62          C69   1.268       .  A
O63          V66   1.888       .  S
O63          C68   1.262       .  A
O64          V66   1.903       .  S
O64          C67   1.265       .  A
V65          V66   2.086       .  T
C67        C1241   1.481       .  S
C68        C1265   1.476       .  S
C69        C1385   1.484       .  S
C70        C1249   1.481       .  S
O71          V79   1.907       .  S
O71          C81   1.267       .  A
O72          V79   1.913       .  S
O72          C82   1.267       .  A
O73          V79   1.887       .  S
O73          C83   1.260       .  A
O74          V79   1.888       .  S
O74          C84   1.262       .  A
O75          V80   1.907       .  S
O75          C84   1.267       .  A
O76          V80   1.905       .  S
O76          C83   1.265       .  A
O77          V80   1.892       .  S
O77          C82   1.263       .  A
O78          V80   1.898       .  S
O78          C81   1.264       .  A
V79          V80   2.087       .  T
C81        C1185   1.481       .  S
C82        C1257   1.477       .  S
C83        C1217   1.461       .  S
C84        C1209   1.479       .  S
O85          V93   1.897       .  S
O85          C95   1.264       .  A
O86          V93   1.898       .  S
O86          C96   1.265       .  A
O87          V93   1.887       .  S
O87          C97   1.263       .  A
O88          V93   1.885       .  S
O88          C98   1.261       .  A
O89          V94   1.902       .  S
O89          C98   1.264       .  A
O90          V94   1.899       .  S
O90          C97   1.265       .  A
O91          V94   1.896       .  S
O91          C96   1.264       .  A
O92          V94   1.901       .  S
O92          C95   1.265       .  A
V93          V94   2.088       .  T
C95        C1161   1.473       .  S
C96        C1225   1.475       .  S
C97        C1329   1.472       .  S
C98        C1169   1.461       .  S
O99         V107   1.906       .  S
O99         C109   1.266       .  A
O100        V107   1.907       .  S
O100        C110   1.266       .  A
O101        V107   1.890       .  S
O101        C111   1.262       .  A
O102        V107   1.891       .  S
O102        C112   1.263       .  A
O103        V108   1.900       .  S
O103        C112   1.265       .  A
O104        V108   1.905       .  S
O104        C111   1.265       .  A
O105        V108   1.882       .  S
O105        C110   1.261       .  A
O106        V108   1.896       .  S
O106        C109   1.263       .  A
V107        V108   2.088       .  T
C109       C1121   1.474       .  S
C110       C1177   1.472       .  S
C111       C1273   1.466       .  S
C112       C1137   1.477       .  S
O113        V121   1.907       .  S
O113        C123   1.266       .  A
O114        V121   1.911       .  S
O114        C124   1.267       .  A
O115        V121   1.893       .  S
O115        C125   1.263       .  A
O116        V121   1.891       .  S
O116        C126   1.262       .  A
O117        V122   1.909       .  S
O117        C126   1.267       .  A
O118        V122   1.903       .  S
O118        C125   1.266       .  A
O119        V122   1.887       .  S
O119        C124   1.262       .  A
O120        V122   1.898       .  S
O120        C123   1.263       .  A
V121        V122   2.087       .  T
C123       C1073   1.473       .  S
C124       C1113   1.477       .  S
C125       C1201   1.478       .  S
C126       C1089   1.474       .  S
O127        V135   1.904       .  S
O127        C137   1.265       .  A
O128        V135   1.900       .  S
O128        C138   1.266       .  A
O129        V135   1.889       .  S
O129        C139   1.262       .  A
O130        V135   1.884       .  S
O130        C140   1.261       .  A
O131        V136   1.910       .  S
O131        C140   1.268       .  A
O132        V136   1.907       .  S
O132        C139   1.265       .  A
O133        V136   1.897       .  S
O133        C138   1.264       .  A
O134        V136   1.909       .  S
O134        C137   1.265       .  A
V135        V136   2.085       .  T
C137       C1025   1.476       .  S
C138       C1057   1.477       .  S
C139       C1105   1.469       .  S
C140       C1049   1.478       .  S
O141        V149   1.906       .  S
O141        C151   1.266       .  A
O142        V149   1.903       .  S
O142        C152   1.266       .  A
O143        V149   1.892       .  S
O143        C153   1.262       .  A
O144        V149   1.893       .  S
O144        C154   1.263       .  A
O145        V150   1.899       .  S
O145        C154   1.265       .  A
O146        V150   1.901       .  S
O146        C153   1.264       .  A
O147        V150   1.900       .  S
O147        C152   1.264       .  A
O148        V150   1.904       .  S
O148        C151   1.266       .  A
V149        V150   2.088       .  T
C151        C985   1.482       .  S
C152       C1097   1.477       .  S
C153       C1017   1.462       .  S
C154        C993   1.476       .  S
O155        V163   1.897       .  S
O155        C165   1.264       .  A
O156        V163   1.902       .  S
O156        C166   1.265       .  A
O157        V163   1.891       .  S
O157        C167   1.263       .  A
O158        V163   1.891       .  S
O158        C168   1.261       .  A
O159        V164   1.903       .  S
O159        C168   1.265       .  A
O160        V164   1.901       .  S
O160        C167   1.265       .  A
O161        V164   1.889       .  S
O161        C166   1.262       .  A
O162        V164   1.894       .  S
O162        C165   1.263       .  A
V163        V164   2.089       .  T
C165        C961   1.466       .  S
C166       C1009   1.473       .  S
C167       C1145   1.477   1_545  S
C168       C1065   1.463       .  S
O169        V177   1.910       .  S
O169        C179   1.266       .  A
O170        V177   1.910       .  S
O170        C180   1.267       .  A
O171        V177   1.891       .  S
O171        C181   1.263       .  A
O172        V177   1.890       .  S
O172        C182   1.262       .  A
O173        V178   1.907       .  S
O173        C182   1.266       .  A
O174        V178   1.905       .  S
O174        C181   1.266       .  A
O175        V178   1.891       .  S
O175        C180   1.262       .  A
O176        V178   1.893       .  S
O176        C179   1.263       .  A
V177        V178   2.088       .  T
C179        C921   1.473       .  S
C180        C945   1.477       .  S
C181       C1001   1.477       .  S
C182        C929   1.471       .  S
O183        V191   1.910       .  S
O183        C193   1.267       .  A
O184        V191   1.904       .  S
O184        C194   1.266       .  A
O185        V191   1.899       .  S
O185        C195   1.264       .  A
O186        V191   1.895       .  S
O186        C196   1.264       .  A
O187        V192   1.902       .  S
O187        C196   1.265       .  A
O188        V192   1.901       .  S
O188        C195   1.265       .  A
O189        V192   1.901       .  S
O189        C194   1.264       .  A
O190        V192   1.907       .  S
O190        C193   1.267       .  A
V191        V192   2.087       .  T
C193        C881   1.489       .  S
C194        C937   1.477       .  S
C195        C905   1.475       .  S
C196       C1297   1.479       .  S
O197        V205   1.905       .  S
O197        C207   1.265       .  A
O198        V205   1.904       .  S
O198        C208   1.266       .  A
O199        V205   1.881       .  S
O199        C209   1.260       .  A
O200        V205   1.891       .  S
O200        C210   1.262       .  A
O201        V206   1.909       .  S
O201        C210   1.266       .  A
O202        V206   1.914       .  S
O202        C209   1.269       .  A
O203        V206   1.895       .  S
O203        C208   1.262       .  A
O204        V206   1.903       .  S
O204        C207   1.264       .  A
V205        V206   2.087       .  T
C207        C849   1.474       .  S
C208        C897   1.472       .  S
C209       C1041   1.479       .  S
C210        C873   1.468       .  S
O211        V219   1.911       .  S
O211        C221   1.267       .  A
O212        V219   1.915       .  S
O212        C222   1.269       .  A
O213        V219   1.887       .  S
O213        C223   1.261       .  A
O214        V219   1.893       .  S
O214        C224   1.262       .  A
O215        V220   1.908       .  S
O215        C224   1.267       .  A
O216        V220   1.912       .  S
O216        C223   1.267       .  A
O217        V220   1.889       .  S
O217        C222   1.262       .  A
O218        V220   1.899       .  S
O218        C221   1.264       .  A
V219        V220   2.086       .  T
C221        C833   1.483       .  S
C222        C865   1.483       .  S
C223        C953   1.472       .  S
C224       C1425   1.476       .  S
O225        V233   1.905       .  S
O225        C235   1.267       .  A
O226        V233   1.910       .  S
O226        C236   1.266       .  A
O227        V233   1.881       .  S
O227        C237   1.261       .  A
O228        V233   1.884       .  S
O228        C238   1.260       .  A
O229        V234   1.911       .  S
O229        C238   1.266       .  A
O230        V234   1.907       .  S
O230        C237   1.267       .  A
O231        V234   1.895       .  S
O231        C236   1.263       .  A
O232        V234   1.904       .  S
O232        C235   1.265       .  A
V233        V234   2.086       .  T
C235       C1233   1.482       .  S
C236        C825   1.472       .  S
C237        C785   1.472       .  S
C238        C801   1.463       .  S
O239        V247   1.903       .  S
O239        C249   1.265       .  A
O240        V247   1.900       .  S
O240        C250   1.265       .  A
O241        V247   1.892       .  S
O241        C251   1.262       .  A
O242        V247   1.896       .  S
O242        C252   1.264       .  A
O243        V248   1.895       .  S
O243        C252   1.265       .  A
O244        V248   1.902       .  S
O244        C251   1.264       .  A
O245        V248   1.905       .  S
O245        C250   1.266       .  A
O246        V248   1.913       .  S
O246        C249   1.267       .  A
V247        V248   2.087       .  T
C249        C889   1.480       .  S
C250        C809   1.483       .  S
C251        C769   1.466       .  S
C252        C761   1.477       .  S
O253        V261   1.899       .  S
O253        C263   1.264       .  A
O254        V261   1.900       .  S
O254        C264   1.265       .  A
O255        V261   1.892       .  S
O255        C265   1.263       .  A
O256        V261   1.889       .  S
O256        C266   1.263       .  A
O257        V262   1.902       .  S
O257        C266   1.265       .  A
O258        V262   1.898       .  S
O258        C265   1.265       .  A
O259        V262   1.893       .  S
O259        C264   1.263       .  A
O260        V262   1.901       .  S
O260        C263   1.265       .  A
V261        V262   2.087       .  T
C263       C1153   1.473       .  S
C264        C777   1.472       .  S
C265        C729   1.475       .  S
C266        C745   1.470       .  S
O267        V275   1.915       .  S
O267        C277   1.267       .  A
O268        V275   1.912       .  S
O268        C278   1.267       .  A
O269        V275   1.890       .  S
O269        C279   1.262       .  A
O270        V275   1.893       .  S
O270        C280   1.263       .  A
O271        V276   1.905   1_565  S
O271        C280   1.267   1_565  A
O272        V276   1.908       .  S
O272        C279   1.267       .  A
O273        V276   1.883       .  S
O273        C278   1.260       .  A
O274        V276   1.891       .  S
O274        C277   1.262       .  A
V275        V276   2.088       .  T
C277        C841   1.475       .  S
C278        C737   1.469       .  S
C279        C817   1.475       .  S
C280        C705   1.479   1_545  S
O281        V289   1.895       .  S
O281        C291   1.264       .  A
O282        V289   1.898       .  S
O282        C292   1.265       .  A
O283        V289   1.885       .  S
O283        C293   1.262       .  A
O284        V289   1.891       .  S
O284        C294   1.262       .  A
O285        V290   1.898       .  S
O285        C294   1.266       .  A
O286        V290   1.909       .  S
O286        C293   1.266       .  A
O287        V290   1.897       .  S
O287        C292   1.264       .  A
O288        V290   1.903       .  S
O288        C291   1.264       .  A
V289        V290   2.087       .  T
C291       C1321   1.472       .  S
C292        C689   1.476       .  S
C293        C673   1.475       .  S
C294        C721   1.475       .  S
O295        V303   1.904       .  S
O295        C305   1.266       .  A
O296        V303   1.908       .  S
O296        C306   1.266       .  A
O297        V303   1.884       .  S
O297        C307   1.261       .  A
O298        V303   1.887       .  S
O298        C308   1.261       .  A
O299        V304   1.909       .  S
O299        C308   1.266       .  A
O300        V304   1.906       .  S
O300        C307   1.267       .  A
O301        V304   1.889       .  S
O301        C306   1.261       .  A
O302        V304   1.900       .  S
O302        C305   1.265       .  A
V303        V304   2.087       .  T
C305       C1081   1.480       .  S
C306        C681   1.468       .  S
C307        C649   1.472       .  S
C308        C657   1.464       .  S
O309        V317   1.903       .  S
O309        C319   1.265       .  A
O310        V317   1.902       .  S
O310        C320   1.266       .  A
O311        V317   1.888       .  S
O311        C321   1.262       .  A
O312        V317   1.892       .  S
O312        C322   1.262       .  A
O313        V318   1.890       .  S
O313        C322   1.264       .  A
O314        V318   1.895       .  S
O314        C321   1.262       .  A
O315        V318   1.901       .  S
O315        C320   1.265       .  A
O316        V318   1.908       .  S
O316        C319   1.267       .  A
V317        V318   2.088       .  T
C319       C1369   1.486       .  S
C320        C665   1.480       .  S
C321        C625   1.460       .  S
C322        C793   1.471       .  S
O323        V331   1.903       .  S
O323        C333   1.266       .  A
O324        V331   1.903       .  S
O324        C334   1.266       .  A
O325        V331   1.885       .  S
O325        C335   1.261       .  A
O326        V331   1.880       .  S
O326        C336   1.259       .  A
O327        V332   1.913       .  S
O327        C336   1.266       .  A
O328        V332   1.909       .  S
O328        C335   1.268       .  A
O329        V332   1.882       .  S
O329        C334   1.260       .  A
O330        V332   1.886       .  S
O330        C333   1.262       .  A
V331        V332   2.086       .  T
C333        C969   1.469       .  S
C334        C633   1.467       .  S
C335        C617   1.478       .  S
C336        C697   1.461       .  S
O337        V345   1.907       .  S
O337        C347   1.267       .  A
O338        V345   1.908       .  S
O338        C348   1.267       .  A
O339        V345   1.891       .  S
O339        C349   1.262       .  A
O340        V345   1.884       .  S
O340        C350   1.261       .  A
O341        V346   1.909       .  S
O341        C350   1.267       .  A
O342        V346   1.907       .  S
O342        C349   1.266       .  A
O343        V346   1.895       .  S
O343        C348   1.263       .  A
O344        V346   1.905       .  S
O344        C347   1.266       .  A
V345        V346   2.086       .  T
C347       C1033   1.486       .  S
C348        C601   1.478       .  S
C349        C577   1.472       .  S
C350        C561   1.477       .  S
O351        V359   1.903       .  S
O351        C361   1.265       .  A
O352        V359   1.905       .  S
O352        C362   1.266       .  A
O353        V359   1.892       .  S
O353        C363   1.264       .  A
O354        V359   1.894       .  S
O354        C364   1.262       .  A
O355        V360   1.903       .  S
O355        C364   1.265       .  A
O356        V360   1.903       .  S
O356        C363   1.265       .  A
O357        V360   1.895       .  S
O357        C362   1.264       .  A
O358        V360   1.901       .  S
O358        C361   1.265       .  A
V359        V360   2.088       .  T
C361       C1289   1.476       .  S
C362        C585   1.476       .  S
C363        C753   1.478       .  S
C364        C553   1.466       .  S
O365        V373   1.911       .  S
O365        C375   1.268       .  A
O366        V373   1.912       .  S
O366        C376   1.267       .  A
O367        V373   1.890       .  S
O367        C377   1.263       .  A
O368        V373   1.891       .  S
O368        C378   1.262       .  A
O369        V374   1.908       .  S
O369        C378   1.266       .  A
O370        V374   1.906       .  S
O370        C377   1.267       .  A
O371        V374   1.888       .  S
O371        C376   1.262       .  A
O372        V374   1.898       .  S
O372        C375   1.264       .  A
V373        V374   2.088       .  T
C375       C1409   1.483       .  S
C376        C529   1.471       .  S
C377        C713   1.478       .  S
C378        C593   1.468       .  S
O379        V387   1.905       .  S
O379        C389   1.265       .  A
O380        V387   1.905       .  S
O380        C390   1.267       .  A
O381        V387   1.881       .  S
O381        C391   1.262       .  A
O382        V387   1.889       .  S
O382        C392   1.262       .  A
O383        V388   1.909       .  S
O383        C392   1.267       .  A
O384        V388   1.913       .  S
O384        C391   1.267       .  A
O385        V388   1.896       .  S
O385        C390   1.263       .  A
O386        V388   1.906       .  S
O386        C389   1.266       .  A
V387        V388   2.085       .  T
C389        C977   1.479       .  S
C390        C545   1.479       .  S
C391        C537   1.475       .  S
C392        C513   1.476       .  S
O393        V401   1.904       .  S
O393        C403   1.266       .  A
O394        V401   1.904       .  S
O394        C404   1.265       .  A
O395        V401   1.883       .  S
O395        C405   1.261       .  A
O396        V401   1.891       .  S
O396        C406   1.263       .  A
O397        V402   1.901       .  S
O397        C406   1.265       .  A
O398        V402   1.907       .  S
O398        C405   1.268       .  A
O399        V402   1.891       .  S
O399        C404   1.262       .  A
O400        V402   1.902       .  S
O400        C403   1.264       .  A
V401        V402   2.087       .  T
C403        C857   1.478       .  S
C404        C505   1.468       .  S
C405        C569   1.476       .  S
C406        C481   1.470       .  S
O407        V415   1.899       .  S
O407        C417   1.265       .  A
O408        V415   1.902       .  S
O408        C418   1.265       .  A
O409        V415   1.883       .  S
O409        C419   1.262       .  A
O410        V415   1.890       .  S
O410        C420   1.262       .  A
O411        V416   1.905       .  S
O411        C420   1.267       .  A
O412        V416   1.906       .  S
O412        C419   1.265       .  A
O413        V416   1.892       .  S
O413        C418   1.262       .  A
O414        V416   1.903       .  S
O414        C417   1.265       .  A
V415        V416   2.088       .  T
C417       C1129   1.477       .  S
C418        C489   1.465       .  S
C419        C473   1.466       .  S
C420        C609   1.478       .  S
O421        V429   1.905       .  S
O421        C431   1.265       .  A
O422        V429   1.904       .  S
O422        C432   1.267       .  A
O423        V429   1.889       .  S
O423        C433   1.263       .  A
O424        V429   1.895       .  S
O424        C434   1.263       .  A
O425        V430   1.892       .  S
O425        C434   1.264       .  A
O426        V430   1.904       .  S
O426        C433   1.265       .  A
O427        V430   1.895       .  S
O427        C432   1.263       .  A
O428        V430   1.898       .  S
O428        C431   1.264       .  A
V429        V430   2.088       .  T
C431       C1193   1.471       .  S
C432        C449   1.479   1_455  S
C433        C497   1.474       .  S
C434        C641   1.474   1_554  S
O435        V443   1.914       .  S
O435        C445   1.268       .  A
O436        V443   1.915       .  S
O436        C446   1.269       .  A
O437        V443   1.890       .  S
O437        C447   1.262       .  A
O438        V443   1.884       .  S
O438        C448   1.260       .  A
O439        V444   1.912       .  S
O439        C448   1.266       .  A
O440        V444   1.909       .  S
O440        C447   1.268       .  A
O441        V444   1.881       .  S
O441        C446   1.260       .  A
O442        V444   1.887       .  S
O442        C445   1.262       .  A
V443        V444   2.083       .  T
C445        C913   1.479       .  S
C446        C465   1.471       .  S
C447        C521   1.474       .  S
C448        C457   1.462       .  S
C449        C450   1.404       .  A
C449        C454   1.409       .  A
C450        C451   1.396       .  A
C450        H459   1.083       .  S
C451        C452   1.401       .  A
C451        H460   1.084       .  S
C452        C458   1.400       .  A
C452        C453   1.413       .  A
C453        C455   1.406       .  A
C453        C454   1.404       .  A
C454        H461   1.084   1_655  S
C455        C456   1.401       .  A
C455        H462   1.083       .  S
C456        C457   1.401       .  A
C456        H463   1.083       .  S
C457        C458   1.401       .  A
C458        H464   1.085       .  S
C465        C466   1.405       .  A
C465        C470   1.405       .  A
C466        C467   1.390       .  A
C466        H475   1.083       .  S
C467        C468   1.397       .  A
C467        H476   1.085       .  S
C468        C474   1.398       .  A
C468        C469   1.416       .  A
C469        C471   1.404       .  A
C469        C470   1.407       .  A
C470        H477   1.085       .  S
C471        C472   1.400       .  A
C471        H478   1.084       .  S
C472        C473   1.404       .  A
C472        H479   1.083       .  S
C473        C474   1.399       .  A
C474        H480   1.086       .  S
C481        C482   1.405       .  A
C481        C486   1.403       .  A
C482        C483   1.397       .  A
C482        H491   1.083       .  S
C483        C484   1.401       .  A
C483        H492   1.085       .  S
C484        C490   1.403   1_455  A
C484        C485   1.416       .  A
C485        C487   1.401   1_455  A
C485        C486   1.401       .  A
C486        H493   1.085       .  S
C487        C488   1.395       .  A
C487        H494   1.085       .  S
C488        C489   1.403       .  A
C488        H495   1.083       .  S
C489        C490   1.401       .  A
C490        H496   1.085   1_655  S
C497        C498   1.405       .  A
C497        C502   1.403       .  A
C498        C499   1.400       .  A
C498        H507   1.083       .  S
C499        C500   1.403       .  A
C499        H508   1.084       .  S
C500        C506   1.405       .  A
C500        C501   1.415       .  A
C501        C503   1.400       .  A
C501        C502   1.399       .  A
C502        H509   1.085       .  S
C503        C504   1.393       .  A
C503        H510   1.084       .  S
C504        C505   1.403       .  A
C504        H511   1.083       .  S
C505        C506   1.404       .  A
C506        H512   1.085       .  S
C513        C514   1.406       .  A
C513        C518   1.405       .  A
C514        C515   1.396       .  A
C514        H523   1.083       .  S
C515        C516   1.400       .  A
C515        H524   1.084       .  S
C516        C522   1.404       .  A
C516        C517   1.415       .  A
C517        C519   1.402       .  A
C517        C518   1.405       .  A
C518        H525   1.085       .  S
C519        C520   1.397       .  A
C519        H526   1.084       .  S
C520        C521   1.405       .  A
C520        H527   1.083       .  S
C521        C522   1.403       .  A
C522        H528   1.085       .  S
C529        C530   1.403       .  A
C529        C534   1.407       .  A
C530        C531   1.391       .  A
C530        H539   1.083       .  S
C531        C532   1.398       .  A
C531        H540   1.085       .  S
C532        C538   1.397       .  A
C532        C533   1.415       .  A
C533        C535   1.406       .  A
C533        C534   1.409       .  A
C534        H541   1.085       .  S
C535        C536   1.403       .  A
C535        H542   1.084       .  S
C536        C537   1.405       .  A
C536        H543   1.083       .  S
C537        C538   1.403       .  A
C538        H544   1.086       .  S
C545        C546   1.405       .  A
C545        C550   1.408       .  A
C546        C547   1.397       .  A
C546        H555   1.083       .  S
C547        C548   1.402       .  A
C547        H556   1.084       .  S
C548        C554   1.402       .  A
C548        C549   1.414       .  A
C549        C551   1.405       .  A
C549        C550   1.405       .  A
C550        H557   1.084       .  S
C551        C552   1.399       .  A
C551        H558   1.084       .  S
C552        C553   1.402       .  A
C552        H559   1.083       .  S
C553        C554   1.402       .  A
C554        H560   1.085       .  S
C561        C562   1.404       .  A
C561        C566   1.408       .  A
C562        C563   1.399       .  A
C562        H571   1.083       .  S
C563        C564   1.404       .  A
C563        H572   1.084       .  S
C564        C570   1.400       .  A
C564        C565   1.411       .  A
C565        C567   1.403       .  A
C565        C566   1.399       .  A
C566        H573   1.084       .  S
C567        C568   1.397       .  A
C567        H574   1.084       .  S
C568        C569   1.404       .  A
C568        H575   1.083       .  S
C569        C570   1.409       .  A
C570        H576   1.084       .  S
C577        C578   1.403       .  A
C577        C582   1.405       .  A
C578        C579   1.395       .  A
C578        H587   1.083       .  S
C579        C580   1.401       .  A
C579        H588   1.084       .  S
C580        C586   1.402       .  A
C580        C581   1.415       .  A
C581        C583   1.404       .  A
C581        C582   1.406       .  A
C582        H589   1.085       .  S
C583        C584   1.400       .  A
C583        H590   1.084       .  S
C584        C585   1.404       .  A
C584        H591   1.083       .  S
C585        C586   1.404       .  A
C586        H592   1.085       .  S
C593        C594   1.402       .  A
C593        C598   1.405       .  A
C594        C595   1.396       .  A
C594        H603   1.083       .  S
C595        C596   1.402       .  A
C595        H604   1.083       .  S
C596        C602   1.402       .  A
C596        C597   1.414       .  A
C597        C599   1.404       .  A
C597        C598   1.406       .  A
C598        H605   1.085       .  S
C599        C600   1.400       .  A
C599        H606   1.083       .  S
C600        C601   1.405       .  A
C600        H607   1.083       .  S
C601        C602   1.406       .  A
C602        H608   1.084       .  S
C609        C610   1.407   1_554  A
C609        C614   1.404       .  A
C610        C611   1.397       .  A
C610        H619   1.083       .  S
C611        C612   1.401       .  A
C611        H620   1.085   1_655  S
C612        C618   1.405   1_655  A
C612        C613   1.415       .  A
C613        C615   1.399   1_565  A
C613        C614   1.402   1_556  A
C614        H621   1.085       .  S
C615        C616   1.394   1_655  A
C615        H622   1.085   1_556  S
C616        C617   1.407       .  A
C616        H623   1.083       .  S
C617        C618   1.405   1_545  A
C618        H624   1.085       .  S
C625        C626   1.403       .  A
C625        C630   1.397       .  A
C626        C627   1.396       .  A
C626        H635   1.083       .  S
C627        C628   1.402       .  A
C627        H636   1.084       .  S
C628        C634   1.401       .  A
C628        C629   1.416       .  A
C629        C631   1.398       .  A
C629        C630   1.397       .  A
C630        H637   1.086       .  S
C631        C632   1.391   1_655  A
C631        H638   1.085   1_655  S
C632        C633   1.405       .  A
C632        H639   1.083       .  S
C633        C634   1.402   1_455  A
C634        H640   1.085       .  S
C641        C642   1.406       .  A
C641        C646   1.403       .  A
C642        C643   1.398   1_455  A
C642        H651   1.083       .  S
C643        C644   1.402       .  A
C643        H652   1.084       .  S
C644        C650   1.404       .  A
C644        C645   1.414       .  A
C645        C647   1.399       .  A
C645        C646   1.398   1_655  A
C646        H653   1.085   1_556  S
C647        C648   1.392       .  A
C647        H654   1.084   1_556  S
C648        C649   1.405       .  A
C648        H655   1.083       .  S
C649        C650   1.405       .  A
C650        H656   1.084       .  S
C657        C658   1.401       .  A
C657        C662   1.402       .  A
C658        C659   1.398       .  A
C658        H667   1.083       .  S
C659        C660   1.404       .  A
C659        H668   1.083       .  S
C660        C666   1.405       .  A
C660        C661   1.415       .  A
C661        C663   1.402       .  A
C661        C662   1.403       .  A
C662        H669   1.085       .  S
C663        C664   1.397       .  A
C663        H670   1.084       .  S
C664        C665   1.405       .  A
C664        H671   1.083       .  S
C665        C666   1.407       .  A
C666        H672   1.084       .  S
C673        C674   1.405       .  A
C673        C678   1.403       .  A
C674        C675   1.401       .  A
C674        H683   1.083       .  S
C675        C676   1.404       .  A
C675        H684   1.084       .  S
C676        C682   1.406       .  A
C676        C677   1.415       .  A
C677        C679   1.400   1_455  A
C677        C678   1.398       .  A
C678        H685   1.085       .  S
C679        C680   1.392       .  A
C679        H686   1.085       .  S
C680        C681   1.403       .  A
C680        H687   1.083       .  S
C681        C682   1.405   1_655  A
C682        H688   1.085       .  S
C689        C690   1.404       .  A
C689        C694   1.409       .  A
C690        C691   1.394       .  A
C690        H699   1.083       .  S
C691        C692   1.401       .  A
C691        H700   1.084       .  S
C692        C698   1.397       .  A
C692        C693   1.413       .  A
C693        C695   1.407       .  A
C693        C694   1.404       .  A
C694        H701   1.084       .  S
C695        C696   1.402       .  A
C695        H702   1.083       .  S
C696        C697   1.400       .  A
C696        H703   1.083       .  S
C697        C698   1.401       .  A
C698        H704   1.086       .  S
C705        C706   1.404       .  A
C705        C710   1.408       .  A
C706        C707   1.397       .  A
C706        H715   1.083       .  S
C707        C708   1.403       .  A
C707        H716   1.084       .  S
C708        C714   1.402       .  A
C708        C709   1.412       .  A
C709        C711   1.404       .  A
C709        C710   1.403       .  A
C710        H717   1.084   1_565  S
C711        C712   1.399       .  A
C711        H718   1.084   1_565  S
C712        C713   1.404       .  A
C712        H719   1.083       .  S
C713        C714   1.408       .  A
C714        H720   1.084       .  S
C721        C722   1.406       .  A
C721        C726   1.404       .  A
C722        C723   1.396       .  A
C722        H731   1.083       .  S
C723        C724   1.401       .  A
C723        H732   1.084       .  S
C724        C730   1.402       .  A
C724        C725   1.414       .  A
C725        C727   1.400       .  A
C725        C726   1.400       .  A
C726        H733   1.085       .  S
C727        C728   1.395       .  A
C727        H734   1.084       .  S
C728        C729   1.406       .  A
C728        H735   1.083       .  S
C729        C730   1.406       .  A
C730        H736   1.085       .  S
C737        C738   1.404       .  A
C737        C742   1.404       .  A
C738        C739   1.391       .  A
C738        H747   1.083       .  S
C739        C740   1.398       .  A
C739        H748   1.085       .  S
C740        C746   1.399       .  A
C740        C741   1.416       .  A
C741        C743   1.403       .  A
C741        C742   1.406       .  A
C742        H749   1.085       .  S
C743        C744   1.400       .  A
C743        H750   1.084       .  S
C744        C745   1.405       .  A
C744        H751   1.083       .  S
C745        C746   1.401       .  A
C746        H752   1.086       .  S
C753        C754   1.405       .  A
C753        C758   1.406       .  A
C754        C755   1.399       .  A
C754        H763   1.083       .  S
C755        C756   1.404       .  A
C755        H764   1.084       .  S
C756        C762   1.404       .  A
C756        C757   1.413       .  A
C757        C759   1.401       .  A
C757        C758   1.400       .  A
C758        H765   1.084       .  S
C759        C760   1.395       .  A
C759        H766   1.084       .  S
C760        C761   1.405       .  A
C760        H767   1.083       .  S
C761        C762   1.408       .  A
C762        H768   1.084       .  S
C769        C770   1.402       .  A
C769        C774   1.404       .  A
C770        C771   1.395       .  A
C770        H779   1.083       .  S
C771        C772   1.402       .  A
C771        H780   1.083       .  S
C772        C778   1.400       .  A
C772        C773   1.415       .  A
C773        C775   1.403       .  A
C773        C774   1.403       .  A
C774        H781   1.085       .  S
C775        C776   1.398       .  A
C775        H782   1.083       .  S
C776        C777   1.404       .  A
C776        H783   1.083       .  S
C777        C778   1.404       .  A
C778        H784   1.084       .  S
C785        C786   1.406       .  A
C785        C790   1.405       .  A
C786        C787   1.391       .  A
C786        H795   1.083       .  S
C787        C788   1.398       .  A
C787        H796   1.084       .  S
C788        C794   1.397       .  A
C788        C789   1.414       .  A
C789        C791   1.402       .  A
C789        C790   1.403       .  A
C790        H797   1.084       .  S
C791        C792   1.398       .  A
C791        H798   1.084       .  S
C792        C793   1.405       .  A
C792        H799   1.083       .  S
C793        C794   1.403       .  A
C794        H800   1.085       .  S
C801        C802   1.401       .  A
C801        C806   1.401       .  A
C802        C803   1.400       .  A
C802        H811   1.083       .  S
C803        C804   1.405       .  A
C803        H812   1.083       .  S
C804        C810   1.407       .  A
C804        C805   1.414       .  A
C805        C807   1.400       .  A
C805        C806   1.402       .  A
C806        H813   1.085       .  S
C807        C808   1.396       .  A
C807        H814   1.084       .  S
C808        C809   1.406       .  A
C808        H815   1.083       .  S
C809        C810   1.409       .  A
C810        H816   1.084       .  S
C817        C818   1.405       .  A
C817        C822   1.404       .  A
C818        C819   1.401       .  A
C818        H827   1.083       .  S
C819        C820   1.404       .  A
C819        H828   1.084       .  S
C820        C826   1.408       .  A
C820        C821   1.415       .  A
C821        C823   1.401       .  A
C821        C822   1.402       .  A
C822        H829   1.085       .  S
C823        C824   1.395       .  A
C823        H830   1.084       .  S
C824        C825   1.403       .  A
C824        H831   1.083       .  S
C825        C826   1.405       .  A
C826        H832   1.085       .  S
C833        C834   1.406       .  A
C833        C838   1.406       .  A
C834        C835   1.402       .  A
C834        H843   1.083       .  S
C835        C836   1.404       .  A
C835        H844   1.084       .  S
C836        C842   1.410       .  A
C836        C837   1.415       .  A
C837        C839   1.401       .  A
C837        C838   1.405       .  A
C838        H845   1.084       .  S
C839        C840   1.396       .  A
C839        H846   1.084       .  S
C840        C841   1.403       .  A
C840        H847   1.083       .  S
C841        C842   1.406       .  A
C842        H848   1.084       .  S
C849        C850   1.403       .  A
C849        C854   1.404   1_545  A
C850        C851   1.399   1_545  A
C850        H859   1.083       .  S
C851        C852   1.404       .  A
C851        H860   1.083   1_565  S
C852        C858   1.407       .  A
C852        C853   1.415       .  A
C853        C855   1.403       .  A
C853        C854   1.407       .  A
C854        H861   1.084       .  S
C855        C856   1.399       .  A
C855        H862   1.083       .  S
C856        C857   1.404       .  A
C856        H863   1.083       .  S
C857        C858   1.406       .  A
C858        H864   1.084       .  S
C865        C866   1.405   1_655  A
C865        C870   1.409       .  A
C866        C867   1.401       .  A
C866        H875   1.083       .  S
C867        C868   1.404       .  A
C867        H876   1.083       .  S
C868        C874   1.406       .  A
C868        C869   1.413       .  A
C869        C871   1.404       .  A
C869        C870   1.403   1_455  A
C870        H877   1.084       .  S
C871        C872   1.398       .  A
C871        H878   1.083   1_455  S
C872        C873   1.401       .  A
C872        H879   1.083       .  S
C873        C874   1.406       .  A
C874        H880   1.085       .  S
C881        C882   1.407       .  A
C881        C886   1.409       .  A
C882        C883   1.401       .  A
C882        H891   1.083       .  S
C883        C884   1.403       .  A
C883        H892   1.084       .  S
C884        C890   1.411       .  A
C884        C885   1.416       .  A
C885        C887   1.404       .  A
C885        C886   1.411       .  A
C886        H893   1.085       .  S
C887        C888   1.400       .  A
C887        H894   1.084       .  S
C888        C889   1.404       .  A
C888        H895   1.083       .  S
C889        C890   1.406       .  A
C890        H896   1.085       .  S
C897        C898   1.404       .  A
C897        C902   1.402       .  A
C898        C899   1.398       .  A
C898        H907   1.083       .  S
C899        C900   1.402       .  A
C899        H908   1.084       .  S
C900        C906   1.405       .  A
C900        C901   1.416       .  A
C901        C903   1.401       .  A
C901        C902   1.403       .  A
C902        H909   1.085       .  S
C903        C904   1.396       .  A
C903        H910   1.084       .  S
C904        C905   1.405       .  A
C904        H911   1.083       .  S
C905        C906   1.405       .  A
C906        H912   1.085       .  S
C913        C914   1.405       .  A
C913        C918   1.405       .  A
C914        C915   1.403       .  A
C914        H923   1.083       .  S
C915        C916   1.405       .  A
C915        H924   1.083       .  S
C916        C922   1.409       .  A
C916        C917   1.414       .  A
C917        C919   1.401       .  A
C917        C918   1.400       .  A
C918        H925   1.084       .  S
C919        C920   1.394       .  A
C919        H926   1.084       .  S
C920        C921   1.403       .  A
C920        H927   1.084       .  S
C921        C922   1.407       .  A
C922        H928   1.084       .  S
C929        C930   1.404       .  A
C929        C934   1.403       .  A
C930        C931   1.398       .  A
C930        H939   1.083       .  S
C931        C932   1.403       .  A
C931        H940   1.084   1_655  S
C932        C938   1.405   1_655  A
C932        C933   1.415       .  A
C933        C935   1.402       .  A
C933        C934   1.404       .  A
C934        H941   1.085       .  S
C935        C936   1.397       .  A
C935        H942   1.084       .  S
C936        C937   1.404   1_655  A
C936        H943   1.083       .  S
C937        C938   1.406       .  A
C938        H944   1.084       .  S
C945        C946   1.404       .  A
C945        C950   1.405       .  A
C946        C947   1.400       .  A
C946        H955   1.083       .  S
C947        C948   1.404       .  A
C947        H956   1.083       .  S
C948        C954   1.407       .  A
C948        C949   1.415       .  A
C949        C951   1.401       .  A
C949        C950   1.402       .  A
C950        H957   1.085       .  S
C951        C952   1.395       .  A
C951        H958   1.084       .  S
C952        C953   1.404       .  A
C952        H959   1.084       .  S
C953        C954   1.405       .  A
C954        H960   1.084       .  S
C961        C962   1.402       .  A
C961        C966   1.403       .  A
C962        C963   1.395   1_554  A
C962        H971   1.083   1_545  S
C963        C964   1.402       .  A
C963        H972   1.084   1_545  S
C964        C970   1.399       .  A
C964        C965   1.414       .  A
C965        C967   1.403       .  A
C965        C966   1.401   1_556  A
C966        H973   1.085       .  S
C967        C968   1.397       .  A
C967        H974   1.084       .  S
C968        C969   1.403       .  A
C968        H975   1.083       .  S
C969        C970   1.404       .  A
C970        H976   1.085       .  S
C977        C978   1.403       .  A
C977        C982   1.407       .  A
C978        C979   1.399       .  A
C978        H987   1.083       .  S
C979        C980   1.403       .  A
C979        H988   1.083       .  S
C980        C986   1.406       .  A
C980        C981   1.414       .  A
C981        C983   1.404       .  A
C981        C982   1.409       .  A
C982        H989   1.084       .  S
C983        C984   1.401   1_565  A
C983        H990   1.084       .  S
C984        C985   1.406       .  A
C984        H991   1.083       .  S
C985        C986   1.406   1_545  A
C986        H992   1.084   1_565  S
C993        C994   1.404       .  A
C993        C998   1.408       .  A
C994        C995   1.396       .  A
C994       H1003   1.083       .  S
C995        C996   1.402       .  A
C995       H1004   1.084       .  S
C996       C1002   1.401       .  A
C996        C997   1.412       .  A
C997        C999   1.404       .  A
C997        C998   1.403       .  A
C998       H1005   1.084       .  S
C999       C1000   1.399       .  A
C999       H1006   1.084       .  S
C1000      C1001   1.404       .  A
C1000      H1007   1.083       .  S
C1001      C1002   1.407       .  A
C1002      H1008   1.084       .  S
C1009      C1010   1.404       .  A
C1009      C1014   1.405       .  A
C1010      C1011   1.397       .  A
C1010      H1019   1.083       .  S
C1011      C1012   1.403       .  A
C1011      H1020   1.084       .  S
C1012      C1018   1.402       .  A
C1012      C1013   1.414       .  A
C1013      C1015   1.403       .  A
C1013      C1014   1.399       .  A
C1014      H1021   1.084       .  S
C1015      C1016   1.396       .  A
C1015      H1022   1.084       .  S
C1016      C1017   1.401       .  A
C1016      H1023   1.083       .  S
C1017      C1018   1.402       .  A
C1018      H1024   1.085       .  S
C1025      C1026   1.402       .  A
C1025      C1030   1.405       .  A
C1026      C1027   1.400       .  A
C1026      H1035   1.083       .  S
C1027      C1028   1.404       .  A
C1027      H1036   1.083       .  S
C1028      C1034   1.408       .  A
C1028      C1029   1.415       .  A
C1029      C1031   1.403       .  A
C1029      C1030   1.409       .  A
C1030      H1037   1.084       .  S
C1031      C1032   1.400       .  A
C1031      H1038   1.083       .  S
C1032      C1033   1.406       .  A
C1032      H1039   1.083       .  S
C1033      C1034   1.409       .  A
C1034      H1040   1.084       .  S
C1041      C1042   1.404       .  A
C1041      C1046   1.409       .  A
C1042      C1043   1.399       .  A
C1042      H1051   1.083       .  S
C1043      C1044   1.405       .  A
C1043      H1052   1.084       .  S
C1044      C1050   1.401       .  A
C1044      C1045   1.411       .  A
C1045      C1047   1.404       .  A
C1045      C1046   1.400       .  A
C1046      H1053   1.084       .  S
C1047      C1048   1.398       .  A
C1047      H1054   1.084       .  S
C1048      C1049   1.403       .  A
C1048      H1055   1.083       .  S
C1049      C1050   1.410       .  A
C1050      H1056   1.084       .  S
C1057      C1058   1.405       .  A
C1057      C1062   1.408       .  A
C1058      C1059   1.395       .  A
C1058      H1067   1.083       .  S
C1059      C1060   1.400       .  A
C1059      H1068   1.084       .  S
C1060      C1066   1.400       .  A
C1060      C1061   1.415       .  A
C1061      C1063   1.404       .  A
C1061      C1062   1.404       .  A
C1062      H1069   1.084       .  S
C1063      C1064   1.399       .  A
C1063      H1070   1.084       .  S
C1064      C1065   1.402       .  A
C1064      H1071   1.083       .  S
C1065      C1066   1.400       .  A
C1066      H1072   1.085       .  S
C1073      C1074   1.403       .  A
C1073      C1078   1.403       .  A
C1074      C1075   1.399   1_554  A
C1074      H1083   1.083       .  S
C1075      C1076   1.403       .  A
C1075      H1084   1.084       .  S
C1076      C1082   1.406       .  A
C1076      C1077   1.415       .  A
C1077      C1079   1.402       .  A
C1077      C1078   1.405   1_556  A
C1078      H1085   1.085       .  S
C1079      C1080   1.398       .  A
C1079      H1086   1.084       .  S
C1080      C1081   1.405       .  A
C1080      H1087   1.083       .  S
C1081      C1082   1.407       .  A
C1082      H1088   1.085       .  S
C1089      C1090   1.405       .  A
C1089      C1094   1.404       .  A
C1090      C1091   1.397       .  A
C1090      H1099   1.083       .  S
C1091      C1092   1.402       .  A
C1091      H1100   1.083       .  S
C1092      C1098   1.405       .  A
C1092      C1093   1.415       .  A
C1093      C1095   1.402       .  A
C1093      C1094   1.405       .  A
C1094      H1101   1.084       .  S
C1095      C1096   1.398       .  A
C1095      H1102   1.083       .  S
C1096      C1097   1.404       .  A
C1096      H1103   1.083       .  S
C1097      C1098   1.406       .  A
C1098      H1104   1.084       .  S
C1105      C1106   1.402       .  A
C1105      C1110   1.407       .  A
C1106      C1107   1.393       .  A
C1106      H1115   1.083       .  S
C1107      C1108   1.401       .  A
C1107      H1116   1.084       .  S
C1108      C1114   1.398       .  A
C1108      C1109   1.414       .  A
C1109      C1111   1.406       .  A
C1109      C1110   1.407       .  A
C1110      H1117   1.085       .  S
C1111      C1112   1.402       .  A
C1111      H1118   1.084       .  S
C1112      C1113   1.405       .  A
C1112      H1119   1.083       .  S
C1113      C1114   1.404       .  A
C1114      H1120   1.084       .  S
C1121      C1122   1.404       .  A
C1121      C1126   1.404       .  A
C1122      C1123   1.398       .  A
C1122      H1131   1.083       .  S
C1123      C1124   1.402       .  A
C1123      H1132   1.084       .  S
C1124      C1130   1.406       .  A
C1124      C1125   1.415       .  A
C1125      C1127   1.401       .  A
C1125      C1126   1.405       .  A
C1126      H1133   1.085       .  S
C1127      C1128   1.397       .  A
C1127      H1134   1.084       .  S
C1128      C1129   1.405   1_556  A
C1128      H1135   1.083   1_556  S
C1129      C1130   1.405   1_554  A
C1130      H1136   1.085       .  S
C1137      C1138   1.405       .  A
C1137      C1142   1.407       .  A
C1138      C1139   1.397       .  A
C1138      H1147   1.083       .  S
C1139      C1140   1.402       .  A
C1139      H1148   1.084   1_565  S
C1140      C1146   1.401       .  A
C1140      C1141   1.412       .  A
C1141      C1143   1.403   1_556  A
C1141      C1142   1.401       .  A
C1142      H1149   1.084       .  S
C1143      C1144   1.397       .  A
C1143      H1150   1.084       .  S
C1144      C1145   1.405       .  A
C1144      H1151   1.083       .  S
C1145      C1146   1.407   1_554  A
C1146      H1152   1.084   1_565  S
C1153      C1154   1.404       .  A
C1153      C1158   1.404       .  A
C1154      C1155   1.397   1_545  A
C1154      H1163   1.083       .  S
C1155      C1156   1.402       .  A
C1155      H1164   1.084       .  S
C1156      C1162   1.403       .  A
C1156      C1157   1.415       .  A
C1157      C1159   1.403       .  A
C1157      C1158   1.404   1_565  A
C1158      H1165   1.084       .  S
C1159      C1160   1.398       .  A
C1159      H1166   1.083       .  S
C1160      C1161   1.403       .  A
C1160      H1167   1.083       .  S
C1161      C1162   1.405       .  A
C1162      H1168   1.084       .  S
C1169      C1170   1.401       .  A
C1169      C1174   1.404       .  A
C1170      C1171   1.392       .  A
C1170      H1179   1.084       .  S
C1171      C1172   1.400       .  A
C1171      H1180   1.084       .  S
C1172      C1178   1.395       .  A
C1172      C1173   1.414       .  A
C1173      C1175   1.404       .  A
C1173      C1174   1.403       .  A
C1174      H1181   1.085       .  S
C1175      C1176   1.400       .  A
C1175      H1182   1.084       .  S
C1176      C1177   1.404       .  A
C1176      H1183   1.083       .  S
C1177      C1178   1.403       .  A
C1178      H1184   1.085       .  S
C1185      C1186   1.406       .  A
C1185      C1190   1.406       .  A
C1186      C1187   1.400       .  A
C1186      H1195   1.083       .  S
C1187      C1188   1.403       .  A
C1187      H1196   1.084       .  S
C1188      C1194   1.407   1_556  A
C1188      C1189   1.415       .  A
C1189      C1191   1.402       .  A
C1189      C1190   1.404       .  A
C1190      H1197   1.084       .  S
C1191      C1192   1.396       .  A
C1191      H1198   1.084       .  S
C1192      C1193   1.402   1_556  A
C1192      H1199   1.083       .  S
C1193      C1194   1.405       .  A
C1194      H1200   1.084       .  S
C1201      C1202   1.404       .  A
C1201      C1206   1.409   1_554  A
C1202      C1203   1.396       .  A
C1202      H1211   1.083       .  S
C1203      C1204   1.402   1_554  A
C1203      H1212   1.084       .  S
C1204      C1210   1.400       .  A
C1204      C1205   1.412       .  A
C1205      C1207   1.404       .  A
C1205      C1206   1.404       .  A
C1206      H1213   1.084       .  S
C1207      C1208   1.400       .  A
C1207      H1214   1.084       .  S
C1208      C1209   1.405       .  A
C1208      H1215   1.083       .  S
C1209      C1210   1.407       .  A
C1210      H1216   1.084       .  S
C1217      C1218   1.401       .  A
C1217      C1222   1.401       .  A
C1218      C1219   1.396       .  A
C1218      H1227   1.084       .  S
C1219      C1220   1.403       .  A
C1219      H1228   1.084       .  S
C1220      C1226   1.402       .  A
C1220      C1221   1.415       .  A
C1221      C1223   1.401       .  A
C1221      C1222   1.402       .  A
C1222      H1229   1.085       .  S
C1223      C1224   1.396       .  A
C1223      H1230   1.084       .  S
C1224      C1225   1.405       .  A
C1224      H1231   1.083       .  S
C1225      C1226   1.405       .  A
C1226      H1232   1.084       .  S
C1233      C1234   1.405       .  A
C1233      C1238   1.408       .  A
C1234      C1235   1.398       .  A
C1234      H1243   1.083       .  S
C1235      C1236   1.402       .  A
C1235      H1244   1.083       .  S
C1236      C1242   1.406       .  A
C1236      C1237   1.414       .  A
C1237      C1239   1.404       .  A
C1237      C1238   1.409       .  A
C1238      H1245   1.084       .  S
C1239      C1240   1.401       .  A
C1239      H1246   1.084       .  S
C1240      C1241   1.406       .  A
C1240      H1247   1.083       .  S
C1241      C1242   1.405       .  A
C1242      H1248   1.084       .  S
C1249      C1250   1.406       .  A
C1249      C1254   1.405       .  A
C1250      C1251   1.403       .  A
C1250      H1259   1.083       .  S
C1251      C1252   1.405       .  A
C1251      H1260   1.084       .  S
C1252      C1258   1.411       .  A
C1252      C1253   1.415       .  A
C1253      C1255   1.400       .  A
C1253      C1254   1.402       .  A
C1254      H1261   1.085       .  S
C1255      C1256   1.394       .  A
C1255      H1262   1.084       .  S
C1256      C1257   1.405       .  A
C1256      H1263   1.083       .  S
C1257      C1258   1.407       .  A
C1258      H1264   1.085       .  S
C1265      C1266   1.404       .  A
C1265      C1270   1.405       .  A
C1266      C1267   1.400       .  A
C1266      H1275   1.083       .  S
C1267      C1268   1.405       .  A
C1267      H1276   1.084       .  S
C1268      C1274   1.405       .  A
C1268      C1269   1.414       .  A
C1269      C1271   1.402       .  A
C1269      C1270   1.399       .  A
C1270      H1277   1.085       .  S
C1271      C1272   1.395       .  A
C1271      H1278   1.084       .  S
C1272      C1273   1.401       .  A
C1272      H1279   1.083       .  S
C1273      C1274   1.405       .  A
C1274      H1280   1.085       .  S
C1281      C1282   1.404       .  A
C1281      C1286   1.404       .  A
C1282      C1283   1.398       .  A
C1282      H1291   1.083       .  S
C1283      C1284   1.403       .  A
C1283      H1292   1.084       .  S
C1284      C1290   1.405       .  A
C1284      C1285   1.415       .  A
C1285      C1287   1.402       .  A
C1285      C1286   1.405       .  A
C1286      H1293   1.085       .  S
C1287      C1288   1.398       .  A
C1287      H1294   1.084       .  S
C1288      C1289   1.404       .  A
C1288      H1295   1.083       .  S
C1289      C1290   1.405       .  A
C1290      H1296   1.085       .  S
C1297      C1298   1.405       .  A
C1297      C1302   1.406       .  A
C1298      C1299   1.400       .  A
C1298      H1307   1.083       .  S
C1299      C1300   1.404   1_455  A
C1299      H1308   1.084       .  S
C1300      C1306   1.405       .  A
C1300      C1301   1.413       .  A
C1301      C1303   1.402       .  A
C1301      C1302   1.402   1_655  A
C1302      H1309   1.084       .  S
C1303      C1304   1.396       .  A
C1303      H1310   1.084       .  S
C1304      C1305   1.404       .  A
C1304      H1311   1.083       .  S
C1305      C1306   1.409       .  A
C1306      H1312   1.084       .  S
C1313      C1314   1.404       .  A
C1313      C1318   1.406       .  A
C1314      C1315   1.393       .  A
C1314      H1323   1.083       .  S
C1315      C1316   1.399       .  A
C1315      H1324   1.084       .  S
C1316      C1322   1.400       .  A
C1316      C1317   1.415       .  A
C1317      C1319   1.404       .  A
C1317      C1318   1.408       .  A
C1318      H1325   1.084       .  S
C1319      C1320   1.401       .  A
C1319      H1326   1.083       .  S
C1320      C1321   1.404       .  A
C1320      H1327   1.083       .  S
C1321      C1322   1.401       .  A
C1322      H1328   1.085       .  S
C1329      C1330   1.404       .  A
C1329      C1334   1.405       .  A
C1330      C1331   1.397       .  A
C1330      H1339   1.083       .  S
C1331      C1332   1.403       .  A
C1331      H1340   1.084       .  S
C1332      C1338   1.400       .  A
C1332      C1333   1.413       .  A
C1333      C1335   1.401       .  A
C1333      C1334   1.398       .  A
C1334      H1341   1.084       .  S
C1335      C1336   1.394       .  A
C1335      H1342   1.084       .  S
C1336      C1337   1.405       .  A
C1336      H1343   1.083       .  S
C1337      C1338   1.406       .  A
C1338      H1344   1.084       .  S
C1345      C1346   1.401       .  A
C1345      C1350   1.403       .  A
C1346      C1347   1.396       .  A
C1346      H1355   1.083       .  S
C1347      C1348   1.402       .  A
C1347      H1356   1.083   1_455  S
C1348      C1354   1.400   1_455  A
C1348      C1349   1.414       .  A
C1349      C1351   1.403       .  A
C1349      C1350   1.401       .  A
C1350      H1357   1.085       .  S
C1351      C1352   1.397       .  A
C1351      H1358   1.084       .  S
C1352      C1353   1.404   1_455  A
C1352      H1359   1.083       .  S
C1353      C1354   1.404       .  A
C1354      H1360   1.084       .  S
C1361      C1362   1.405       .  A
C1361      C1366   1.407       .  A
C1362      C1363   1.398       .  A
C1362      H1371   1.083       .  S
C1363      C1364   1.402       .  A
C1363      H1372   1.084       .  S
C1364      C1370   1.408   1_565  A
C1364      C1365   1.415       .  A
C1365      C1367   1.403       .  A
C1365      C1366   1.411       .  A
C1366      H1373   1.084       .  S
C1367      C1368   1.401   1_565  A
C1367      H1374   1.084       .  S
C1368      C1369   1.407       .  A
C1368      H1375   1.083       .  S
C1369      C1370   1.406       .  A
C1370      H1376   1.084       .  S
C1377      C1378   1.408       .  A
C1377      C1382   1.405       .  A
C1378      C1379   1.398       .  A
C1378      H1387   1.083       .  S
C1379      C1380   1.401       .  A
C1379      H1388   1.084       .  S
C1380      C1386   1.408       .  A
C1380      C1381   1.415       .  A
C1381      C1383   1.401       .  A
C1381      C1382   1.408       .  A
C1382      H1389   1.084       .  S
C1383      C1384   1.398       .  A
C1383      H1390   1.084       .  S
C1384      C1385   1.407       .  A
C1384      H1391   1.083       .  S
C1385      C1386   1.407       .  A
C1386      H1392   1.084       .  S
C1393      C1394   1.404       .  A
C1393      C1398   1.404       .  A
C1394      C1395   1.391       .  A
C1394      H1403   1.083       .  S
C1395      C1396   1.398       .  A
C1395      H1404   1.085       .  S
C1396      C1402   1.399       .  A
C1396      C1397   1.417       .  A
C1397      C1399   1.404       .  A
C1397      C1398   1.410       .  A
C1398      H1405   1.085       .  S
C1399      C1400   1.401       .  A
C1399      H1406   1.084       .  S
C1400      C1401   1.406       .  A
C1400      H1407   1.083       .  S
C1401      C1402   1.401       .  A
C1402      H1408   1.086       .  S
C1409      C1410   1.405       .  A
C1409      C1414   1.407       .  A
C1410      C1411   1.401       .  A
C1410      H1419   1.083       .  S
C1411      C1412   1.404       .  A
C1411      H1420   1.083       .  S
C1412      C1418   1.410       .  A
C1412      C1413   1.415       .  A
C1413      C1415   1.403       .  A
C1413      C1414   1.406       .  A
C1414      H1421   1.084       .  S
C1415      C1416   1.398       .  A
C1415      H1422   1.084       .  S
C1416      C1417   1.403       .  A
C1416      H1423   1.083       .  S
C1417      C1418   1.406       .  A
C1418      H1424   1.084       .  S
C1425      C1426   1.406       .  A
C1425      C1430   1.403   1_545  A
C1426      C1427   1.400       .  A
C1426      H1435   1.083       .  S
C1427      C1428   1.403   1_545  A
C1427      H1436   1.084       .  S
C1428      C1434   1.407   1_655  A
C1428      C1429   1.415       .  A
C1429      C1431   1.400   1_655  A
C1429      C1430   1.403       .  A
C1430      H1437   1.085       .  S
C1431      C1432   1.395       .  A
C1431      H1438   1.084       .  S
C1432      C1433   1.405       .  A
C1432      H1439   1.083       .  S
C1433      C1434   1.407       .  A
C1434      H1440   1.085       .  S
C1441      C1442   1.406       .  A
C1441      C1446   1.406       .  A
C1442      C1443   1.394       .  A
C1442      H1451   1.083       .  S
C1443      C1444   1.399       .  A
C1443      H1452   1.084       .  S
C1444      C1450   1.403       .  A
C1444      C1445   1.416       .  A
C1445      C1447   1.403       .  A
C1445      C1446   1.407       .  A
C1446      H1453   1.084       .  S
C1447      C1448   1.399       .  A
C1447      H1454   1.084       .  S
C1448      C1449   1.404       .  A
C1448      H1455   1.083       .  S
C1449      C1450   1.401       .  A
C1450      H1456   1.085       .  S
C1457      C1458   1.402       .  A
C1457      C1462   1.409       .  A
C1458      C1459   1.394       .  A
C1458      H1467   1.084       .  S
C1459      C1460   1.401       .  A
C1459      H1468   1.083       .  S
C1460      C1466   1.400       .  A
C1460      C1461   1.413       .  A
C1461      C1463   1.407       .  A
C1461      C1462   1.411       .  A
C1462      H1469   1.084       .  S
C1463      C1464   1.405       .  A
C1463      H1470   1.083       .  S
C1464      C1465   1.406       .  A
C1464      H1471   1.083       .  S
C1465      C1466   1.407       .  A
C1466      H1472   1.084   1_655  S
