geometry optimzed in LAMMPS
_audit_creation_date              2020-12-01 
_audit_creation_method            'lammps2cif' 
_symmetry_space_group_name_H-M    'P1' 
_symmetry_Int_Tables_number       1 
_symmetry_cell_setting            triclinic 
loop_ 
_symmetry_equiv_pos_as_xyz 
  x,y,z 
_cell_length_a                    61.20880476 
_cell_length_b                    61.75738078308195 
_cell_length_c                    28.201801081133382 
_cell_angle_alpha                 94.96269445924985 
_cell_angle_beta                  85.3975614329997 
_cell_angle_gamma                 125.41183878352072 
loop_ 
_atom_site_label 
_atom_site_type_symbol 
_atom_site_fract_x 
_atom_site_fract_y 
_atom_site_fract_z 
_atom_site_charge 
O1          O  0.80242068  0.08126354  0.98840120    -0.56800
C2          C  0.74973738  0.03955421  0.85152577     0.75800
O3          O  0.84132992  0.07753700  0.89432938    -0.57900
C4          C  0.78190651  0.06327565  0.01120854     0.75800
C5          C  0.78504808  0.00372488  0.92317951     0.78200
Cd6        Cd  0.79243215  0.05327871  0.91288156     1.37500
O7          O  0.75501236  0.05442812  0.88895166    -0.56800
O8          O  0.79232589  0.02082828  0.95751093    -0.55600
C9          C  0.84448697  0.09840150  0.88172917     0.78200
O10         O  0.78594709  0.01149273  0.88250202    -0.58000
O11         O  0.76442844  0.03139695  0.84202566    -0.56400
O12         O  0.76562408  0.04206962  0.98749500    -0.56400
O13         O  0.82336973  0.09747288  0.88018150    -0.55600
O14         O  0.74830097  0.03401913  0.34572087    -0.56800
C15         C  0.76572236  0.07025451  0.21552954     0.75800
O16         O  0.71242797  0.07720312  0.32889716    -0.57900
C17         C  0.73413606  0.03160757  0.38298400     0.75800
C18         C  0.79660753  0.12321024  0.34551748     0.78200
Cd19       Cd  0.75006924  0.07207706  0.31434949     1.37500
O20         O  0.75706015  0.05085862  0.24166650    -0.56800
O21         O  0.79626828  0.10243915  0.34093044    -0.55600
C22         C  0.70011738  0.06237169  0.29269970     0.78200
O23         O  0.77459817  0.11999704  0.33944692    -0.58000
O24         O  0.76889859  0.09087653  0.23604694    -0.56400
O25         O  0.72753701  0.04769555  0.38825819    -0.56400
O26         O  0.71128651  0.05311424  0.26788623    -0.55600
O27         O  0.93697772  0.25546967  0.23999311    -0.56800
C28         C  0.99056973  0.28492193  0.39050633     0.75800
O29         O  0.94873537  0.30999038  0.34927218    -0.57900
C30         C  0.95988849  0.26407419  0.22099335     0.75800
C31         C  0.89955584  0.22443309  0.34753406     0.78200
Cd32       Cd  0.95127401  0.27165415  0.32160745     1.37500
O33         O  0.98751739  0.27039384  0.35341413    -0.56800
O34         O  0.92050962  0.22483382  0.34212323    -0.55600
C35         C  0.95928296  0.32144530  0.31043323     0.78200
O36         O  0.90271016  0.24634221  0.34329771    -0.58000
O37         O  0.97564473  0.29299728  0.39505106    -0.56400
O38         O  0.97895639  0.27414560  0.24940317    -0.56400
O39         O  0.96396664  0.30901380  0.27831539    -0.55600
O40         O  0.99815261  0.28070720  0.99391490    -0.56800
C41         C  0.99763721  0.29174856  0.84917038     0.75800
O42         O  0.03352864  0.26482211  0.89428101    -0.57900
C43         C  0.97659268  0.26345301  0.01558177     0.75800
C44         C  0.94479305  0.20125647  0.88474497     0.78200
Cd45       Cd  0.98837813  0.25398969  0.91751103     1.37500
O46         O  0.98429031  0.28854726  0.88792920    -0.56800
O47         O  0.94433784  0.22140776  0.88420987    -0.55600
C48         C  0.03811764  0.26130844  0.93492536     0.78200
O49         O  0.96635381  0.20557190  0.89787994    -0.58000
O50         O  0.00729703  0.27827848  0.84302381    -0.56400
O51         O  0.95924870  0.24352439  0.99039955    -0.56400
O52         O  0.01873765  0.25154757  0.96510730    -0.55600
O53         O  0.90413125  0.56715502  0.88225814    -0.56800
C54         C  0.92219149  0.60827378  0.00146576     0.75800
O55         O  0.91012009  0.64441180  0.94677022    -0.57900
C56         C  0.90421261  0.57166147  0.83920168     0.75800
C57         C  0.84090470  0.58462397  0.91914783     0.78200
Cd58       Cd  0.89477835  0.59972187  0.91643309     1.37500
O59         O  0.93365741  0.61465719  0.96069270    -0.56800
O60         O  0.84685417  0.57278564  0.94435791    -0.55600
C61         C  0.92817346  0.65605411  0.91454503     0.78200
O62         O  0.85925850  0.60156083  0.89167800    -0.58000
O63         O  0.89669095  0.59348313  0.00265962    -0.56400
O64         O  0.89813669  0.58748379  0.83236478    -0.56400
O65         O  0.92783713  0.64164384  0.87939909    -0.55600
O66         O  0.97640376  0.66182650  0.21006844    -0.56800
C67         C  0.01915497  0.69020752  0.33074597     0.75800
O68         O  0.05272114  0.72030965  0.20164561    -0.57900
C69         C  0.98244319  0.66930102  0.16756696     0.75800
C70         C  0.98041886  0.72907362  0.26166143     0.78200
Cd71       Cd  0.01117556  0.70714107  0.24570499     1.37500
O72         O  0.01832491  0.67872522  0.29069787    -0.56800
O73         O  0.97575318  0.70963637  0.28334766    -0.55600
C74         C  0.06806725  0.73773004  0.23257064     0.78200
O75         O  0.00062424  0.73978794  0.23285875    -0.58000
O76         O  0.01246233  0.70613246  0.33150391    -0.56400
O77         O  0.00156087  0.69342990  0.16240087    -0.56400
O78         O  0.05754930  0.74566793  0.26317774    -0.55600
O79         O  0.83667738  0.76139070  0.31519404    -0.56800
C80         C  0.81361543  0.71941585  0.19088647     0.75800
O81         O  0.87238459  0.71959426  0.30054896    -0.57900
C82         C  0.83526886  0.75519751  0.35767893     0.83000
C83         C  0.79898445  0.66734261  0.28198224     0.78200
Cd84       Cd  0.83804882  0.72372064  0.27721367     1.37500
O85         O  0.80331410  0.71987083  0.23140734    -0.56800
O86         O  0.80112983  0.68353643  0.31519245    -0.55600
C87         C  0.89149090  0.73665195  0.27421952     0.78200
O88         O  0.81710811  0.67683812  0.24944265    -0.58000
O89         O  0.83745965  0.72596889  0.19031807    -0.56400
O90         O  0.83599327  0.73544048  0.36217478    -0.56400
O91         O  0.88635354  0.74895707  0.24854477    -0.55600
O92         O  0.71867238  0.64142524  0.90541434    -0.56800
C93         C  0.75038460  0.65494584  0.03210859     0.75800
O94         O  0.67311062  0.57590767  0.94680584    -0.57900
C95         C  0.71401212  0.62574167  0.86927859     0.75800
C96         C  0.75308862  0.59355411  0.94658839     0.78200
Cd97       Cd  0.72077180  0.61342077  0.96017867     1.37500
O98         O  0.75470352  0.65984416  0.98824571    -0.56800
O99         O  0.75654807  0.61201125  0.92353877    -0.55600
C100        C  0.66443163  0.58680822  0.97452100     0.78200
O101        O  0.73358802  0.58308139  0.97701098    -0.58000
O102        O  0.73202126  0.63124702  0.04241754    -0.56400
O103        O  0.71552971  0.60657251  0.87479824    -0.56400
O104        O  0.68084094  0.60493674  0.00336189    -0.55600
O105        O  0.60241055  0.86289409  0.01380886    -0.56800
C106        C  0.63743662  0.88029227  0.87482550     0.75800
O107        O  0.68510909  0.90467927  0.99378949    -0.57900
C108        C  0.61615526  0.87624110  0.04996639     0.75800
C109        C  0.63434547  0.81603656  0.97481800     0.78200
Cd110      Cd  0.64135797  0.86587448  0.96695245     1.37500
O111        O  0.64361104  0.89605196  0.91114939    -0.56800
O112        O  0.61815951  0.81650576  0.95031083    -0.55600
C113        C  0.69885452  0.90250573  0.96029460     0.78200
O114        O  0.65131969  0.83752616  0.99690323    -0.58000
O115        O  0.62868798  0.85661912  0.88265248    -0.56400
O116        O  0.64022877  0.88366651  0.04719417    -0.56400
O117        O  0.68625163  0.88243729  0.93184192    -0.55600
O118        O  0.70424510  0.96333735  0.57455912    -0.56800
C119        C  0.69026954  0.92928237  0.70023685     0.75800
O120        O  0.76401302  0.94634614  0.64214029    -0.57900
C121        C  0.71926603  0.96818060  0.53750759     0.75800
C122        C  0.76441943  0.01411747  0.64893033     0.78200
Cd123      Cd  0.73185369  0.95777773  0.62653545     1.37500
O124        O  0.68757996  0.91935742  0.65803924    -0.56800
O125        O  0.74352120  0.99827428  0.67353613    -0.55600
C126        C  0.75228684  0.92526783  0.61536128     0.78200
O127        O  0.77345601  0.00372040  0.62063639    -0.58000
O128        O  0.71123310  0.95242990  0.70756133    -0.56400
O129        O  0.73763196  0.96487252  0.54017241    -0.56400
O130        O  0.73232795  0.92029374  0.59409131    -0.55600
O131        O  0.78504917  0.80584533  0.69368933    -0.56800
C132        C  0.80844488  0.79736455  0.52592588     0.75800
O133        O  0.72694006  0.77539269  0.60833464    -0.57900
C134        C  0.77065211  0.78108628  0.70051755     0.75800
C135        C  0.77433673  0.84540224  0.60338602     0.78200
Cd136      Cd  0.77545007  0.79928917  0.60480773     1.37500
O137        O  0.81225483  0.79545230  0.56851120    -0.56800
O138        O  0.79475978  0.84814042  0.61908569    -0.55600
C139        C  0.72254220  0.75545113  0.58291594     0.78200
O140        O  0.75596249  0.82222136  0.58864643    -0.58000
O141        O  0.79227164  0.80338964  0.52118151    -0.56400
O142        O  0.76193821  0.76605606  0.66335369    -0.56400
O143        O  0.74282744  0.75686140  0.56438838    -0.55600
O144        O  0.70206573  0.69553713  0.00472039    -0.56800
C145        C  0.71867280  0.73216456  0.87904778     0.75800
O146        O  0.65569202  0.66395507  0.91403015    -0.57900
C147        C  0.69201939  0.69776955  0.04440365     0.75800
C148        C  0.65592231  0.73701676  0.96562836     0.78200
Cd149      Cd  0.67883158  0.70751736  0.95761928     1.37500
O150        O  0.72392484  0.74320452  0.92062513    -0.56800
O151        O  0.67727523  0.74445202  0.98513596    -0.55600
C152        C  0.64110972  0.65066068  0.94923246     0.78200
O153        O  0.64436234  0.71508301  0.94149603    -0.58000
O154        O  0.69642175  0.70968267  0.87534321    -0.56400
O155        O  0.68180293  0.71066021  0.04494231    -0.56400
O156        O  0.64049301  0.66392533  0.98537030    -0.55600
O157        O  0.62970796  0.56040447  0.32507236    -0.56800
C158        C  0.65572032  0.62003733  0.18476934     0.75800
O159        O  0.67835167  0.57518560  0.22644816    -0.57900
C160        C  0.62182361  0.57408006  0.34463659     0.75800
C161        C  0.59516499  0.52806556  0.20887841     0.78200
Cd162      Cd  0.63952098  0.57790548  0.24700102     1.37500
O163        O  0.64842128  0.62157142  0.22756003    -0.56800
O164        O  0.59348477  0.54720549  0.22189199    -0.55600
C165        C  0.69174518  0.59091634  0.26099954     0.78200
O166        O  0.61782815  0.53222713  0.21230939    -0.58000
O167        O  0.65353956  0.59880363  0.17170088    -0.56400
O168        O  0.62092672  0.58914338  0.31809746    -0.56400
O169        O  0.68058647  0.59943584  0.28818686    -0.55600
O170        O  0.65038582  0.59939024  0.67556517    -0.56800
C171        C  0.60918473  0.58169059  0.54804335     0.75800
O172        O  0.56703163  0.57889620  0.67428735    -0.57900
C173        C  0.65334406  0.61379541  0.71285394     0.75800
C174        C  0.63748027  0.65154745  0.61419403     0.78200
Cd175      Cd  0.61422769  0.60007037  0.64484407     1.37500
O176        O  0.59611926  0.59039945  0.56723041    -0.56800
O177        O  0.64609257  0.63750445  0.60207353    -0.55600
C178        C  0.56323028  0.55657505  0.67820455     0.78200
O179        O  0.61708362  0.64178024  0.64284060    -0.58000
O180        O  0.62345336  0.57957019  0.57508002    -0.56400
O181        O  0.63782306  0.62122941  0.71866131    -0.56400
O182        O  0.58354089  0.55595714  0.67141682    -0.55600
O183        O  0.41119851  0.38341883  0.19997994    -0.56800
C184        C  0.43912571  0.38949784  0.32760180     0.75800
O185        O  0.44252414  0.33934089  0.19518937    -0.57900
C186        C  0.40673443  0.36847260  0.16285725     0.75800
C187        C  0.49704178  0.42575440  0.19442160     0.78200
Cd188      Cd  0.44684469  0.38017647  0.22753363     1.37500
O189        O  0.41948775  0.37688599  0.30013174    -0.56800
O190        O  0.47594093  0.42501650  0.20019875    -0.55600
C191        C  0.43775592  0.32975460  0.23567824     0.78200
O192        O  0.49470371  0.40451758  0.20148044    -0.58000
O193        O  0.46215046  0.39955334  0.30781791    -0.56400
O194        O  0.42024416  0.35883196  0.15715179    -0.56400
O195        O  0.44093721  0.34503213  0.27127325    -0.55600
O196        O  0.40933625  0.36358994  0.65830155    -0.56800
C197        C  0.42412094  0.39411683  0.53320503     0.75800
O198        O  0.37461754  0.40248883  0.65956885    -0.57900
C199        C  0.40077941  0.36478452  0.70021222     0.75800
C200        C  0.46150560  0.45609356  0.66223722     0.78200
Cd201      Cd  0.41518911  0.40489776  0.63208500     1.37500
O202        O  0.44321186  0.41195341  0.55880924    -0.56800
O203        O  0.46144327  0.43553183  0.65594789    -0.55600
C204        C  0.36883020  0.40403634  0.61845161     0.78200
O205        O  0.43967245  0.45300767  0.65532543    -0.58000
O206        O  0.40157651  0.37938754  0.55465721    -0.56400
O207        O  0.39896494  0.38405943  0.70980562    -0.56400
O208        O  0.38623756  0.40941801  0.58555681    -0.55600
O209        O  0.07751586  0.69678334  0.98107006    -0.56800
C210        C  0.09510952  0.73036948  0.85874748     0.75800
O211        O  0.04247489  0.73652556  0.98635450    -0.57900
C212        C  0.06809814  0.69713997  0.02260869     0.75800
C213        C  0.12792097  0.78812192  0.98751448     0.78200
Cd214      Cd  0.08202897  0.73741074  0.95665639     1.37500
O215        O  0.11193779  0.75032190  0.88453154    -0.56800
O216        O  0.12687499  0.76700852  0.98591395    -0.55600
C217        C  0.03331268  0.73268246  0.94550564     0.78200
O218        O  0.10683772  0.78566677  0.97691912    -0.58000
O219        O  0.07348508  0.71257289  0.87958446    -0.56400
O220        O  0.06537033  0.71578546  0.03273621    -0.56400
O221        O  0.04836247  0.73444285  0.91048614    -0.55600
O222        O  0.08296813  0.71385508  0.52324169    -0.56800
C223        C  0.11002202  0.72426656  0.65399399     0.75800
O224        O  0.10638422  0.67622248  0.60080407    -0.57900
C225        C  0.08061708  0.70001039  0.48553133     0.75800
C226        C  0.16972134  0.75962392  0.53159619     0.78200
Cd227      Cd  0.11871180  0.71279339  0.55598758     1.37500
O228        O  0.09061001  0.71021752  0.62632508    -0.56800
O229        O  0.14813803  0.75772615  0.52910155    -0.55600
C230        C  0.11182884  0.66387175  0.56982062     0.78200
O231        O  0.16752372  0.73889925  0.54211960    -0.58000
O232        O  0.13328237  0.73479303  0.63505748    -0.56400
O233        O  0.09571039  0.69212810  0.48100770    -0.56400
O234        O  0.12247061  0.67498320  0.53075281    -0.55600
O235        O  0.31971172  0.93930711  0.01323231    -0.56800
C236        C  0.28505687  0.92826253  0.87898685     0.75800
O237        O  0.23295814  0.91150722  0.00334193    -0.57900
C238        C  0.31791952  0.94784171  0.05491310     0.75800
C239        C  0.29422488  0.98873413  0.97067935     0.78200
Cd240      Cd  0.28151831  0.93731993  0.98103013     1.37500
O241        O  0.27256747  0.93759449  0.89805288    -0.56800
O242        O  0.30640806  0.97973396  0.94861428    -0.55600
C243        C  0.22993564  0.88932257  0.99986603     0.78200
O244        O  0.27572169  0.97399475  0.00073733    -0.58000
O245        O  0.29591966  0.92243631  0.90723786    -0.56400
O246        O  0.29973657  0.95171108  0.06199063    -0.56400
O247        O  0.25082582  0.89001654  0.99007507    -0.55600
O248        O  0.31031454  0.95152034  0.54489973    -0.56800
C249        C  0.29690628  0.91835895  0.67374854     0.75800
O250        O  0.29049917  0.86804890  0.55311253    -0.57900
C251        C  0.32469386  0.95478362  0.50754735     0.75800
C252        C  0.36344795  0.92722513  0.59248364     0.78200
Cd253      Cd  0.31205209  0.91559519  0.57482852     1.37500
O254        O  0.30045423  0.90110121  0.65579516    -0.56800
O255        O  0.35055906  0.93296185  0.62161226    -0.55600
C256        C  0.26839467  0.86335127  0.54266337     0.78200
O257        O  0.35268229  0.91589164  0.55307338    -0.58000
O258        O  0.29880851  0.93415571  0.64495422    -0.56400
O259        O  0.33345191  0.94050300  0.50240871    -0.56400
O260        O  0.26717199  0.88313854  0.54427160    -0.55600
O261        O  0.63288177  0.99554579  0.59527074    -0.56800
C262        C  0.68012396  0.02579587  0.70876110     0.75800
O263        O  0.71537693  0.05331569  0.58008317    -0.57900
C264        C  0.64067789  0.99782374  0.55175968     0.75800
C265        C  0.64601805  0.06689929  0.62444639     0.78200
Cd266      Cd  0.67276895  0.04072702  0.62126233     1.37500
O267        O  0.67805204  0.01250970  0.67035717    -0.56800
O268        O  0.64355446  0.05292524  0.65741443    -0.55600
C269        C  0.72971863  0.06895632  0.61386143     0.78200
O270        O  0.66279168  0.07082127  0.59080889    -0.58000
O271        O  0.67344453  0.04165328  0.70744295    -0.56400
O272        O  0.66322497  0.01898059  0.54173492    -0.56400
O273        O  0.71900488  0.07717175  0.64322548    -0.55600
O274        O  0.55386609  0.89697813  0.23244017    -0.56800
C275        C  0.58205337  0.93762481  0.38528517     0.75800
O276        O  0.58441561  0.98054231  0.31875126    -0.57900
C277        C  0.57825755  0.90866983  0.21850705     0.75800
C278        C  0.50802519  0.91826884  0.28910564     0.78200
Cd279      Cd  0.56227428  0.93381910  0.29242823     1.37500
O280        O  0.59501719  0.94019371  0.34653360    -0.56800
O281        O  0.51368507  0.90738869  0.31732569    -0.55600
C282        C  0.59425891  0.98961303  0.27820795     0.78200
O283        O  0.52681358  0.93445867  0.26115959    -0.58000
O284        O  0.55774567  0.92895692  0.38146308    -0.56400
O285        O  0.59468805  0.93017865  0.24107728    -0.56400
O286        O  0.58588776  0.97280187  0.24328526    -0.55600
O287        O  0.41810440  0.99095754  0.33985361    -0.56800
C288        C  0.37750034  0.95823455  0.21535873     0.75800
O289        O  0.39726147  0.91363938  0.32377043    -0.57900
C290        C  0.41176458  0.98446430  0.38293307     0.75800
C291        C  0.32896299  0.91567008  0.31359445     0.78200
Cd292      Cd  0.38561717  0.94487057  0.30532964     1.37500
O293        O  0.38092963  0.97261756  0.25293523    -0.56800
O294        O  0.33964740  0.90662616  0.28623828    -0.55600
C295        C  0.41829212  0.92475624  0.29688844     0.78200
O296        O  0.34339487  0.93257754  0.34594232    -0.58000
O297        O  0.38197747  0.94082248  0.21840807    -0.56400
O298        O  0.39316577  0.96027180  0.38941816    -0.56400
O299        O  0.42315086  0.94389862  0.27393813    -0.55600
O300        O  0.49768666  0.09028014  0.66478820    -0.56800
C301        C  0.47103269  0.04553862  0.54894110     0.75800
O302        O  0.54113583  0.06234070  0.66343876    -0.57900
C303        C  0.49364190  0.08304651  0.70727691     0.75800
C304        C  0.46872183  0.99706295  0.63157704     0.78200
Cd305      Cd  0.50116767  0.05364204  0.63021096     1.37500
O306        O  0.46040922  0.03907577  0.59029114    -0.56800
O307        O  0.48643993  0.00889742  0.59893966    -0.55600
C308        C  0.55684998  0.07278879  0.62772191     0.78200
O309        O  0.46997601  0.01131099  0.66779180    -0.58000
O310        O  0.49652335  0.05994738  0.54622237    -0.56400
O311        O  0.49380594  0.06311432  0.71333314    -0.56400
O312        O  0.54724600  0.07576547  0.59268093    -0.55600
O313        O  0.42191554  0.09521215  0.99147360    -0.56800
C314        C  0.45576943  0.11997905  0.86530182     0.75800
O315        O  0.38435114  0.09303369  0.90760822    -0.57900
C316        C  0.42390670  0.10763133  0.03091319     0.75800
C317        C  0.44232079  0.18141617  0.93772877     0.78200
Cd318      Cd  0.42677823  0.12830413  0.94215273     1.37500
O319        O  0.46466190  0.12670756  0.90706726    -0.56800
O320        O  0.45198728  0.17582787  0.96867078    -0.55600
C321        C  0.36935241  0.09247204  0.94176363     0.78200
O322        O  0.42708385  0.16294006  0.90814348    -0.58000
O323        O  0.43417554  0.11755208  0.85968069    -0.56400
O324        O  0.43243160  0.13176630  0.02894535    -0.56400
O325        O  0.38066349  0.11078136  0.97384309    -0.55600
O326        O  0.34742822  0.01519208  0.31272207    -0.56800
C327        C  0.35997521  0.04922307  0.19323656     0.75800
O328        O  0.28243522  0.97751795  0.29681749    -0.57900
C329        C  0.33690480  0.01630008  0.35266628     0.75800
C330        C  0.29786166  0.05206486  0.27591818     0.78200
Cd331      Cd  0.31897942  0.02114498  0.26694070     1.37500
O332        O  0.36408047  0.05759989  0.23644378    -0.56800
O333        O  0.31647445  0.05619470  0.30020722    -0.55600
C334        C  0.28700664  0.96446244  0.26568221     0.78200
O335        O  0.28696621  0.03164000  0.24748950    -0.58000
O336        O  0.33752806  0.02750444  0.18474744    -0.56400
O337        O  0.32217017  0.02451593  0.35288134    -0.56400
O338        O  0.30073728  0.97670761  0.22899401    -0.55600
O339        O  0.25794147  0.19078877  0.30350562    -0.56800
C340        C  0.29635550  0.20555689  0.17508546     0.75800
O341        O  0.33859753  0.22757826  0.29883782    -0.57900
C342        C  0.26600367  0.19596077  0.34577338     0.75800
C343        C  0.28663307  0.13804163  0.27561229     0.78200
Cd344      Cd  0.29602561  0.18875183  0.26753839     1.37500
O345        O  0.30050252  0.21986824  0.21294357    -0.56800
O346        O  0.27245197  0.13999506  0.24825548    -0.55600
C347        C  0.35333620  0.22668415  0.26573974     0.78200
O348        O  0.30334434  0.15884815  0.29966125    -0.58000
O349        O  0.28737430  0.18152669  0.18057195    -0.56400
O350        O  0.28679422  0.19684133  0.35118641    -0.56400
O351        O  0.34189394  0.20699852  0.23627114    -0.55600
O352        O  0.35671997  0.24967891  0.96682903    -0.56800
C353        C  0.38585073  0.29922225  0.85179128     0.75800
O354        O  0.43971112  0.33401927  0.91483747    -0.57900
C355        C  0.35671084  0.26012777  0.00757272     0.75800
C356        C  0.42759519  0.26370949  0.93863583     0.78200
Cd357      Cd  0.40115744  0.28993801  0.93848889     1.37500
O358        O  0.37669972  0.30138637  0.89247246    -0.56800
O359        O  0.41223154  0.25951695  0.90625556    -0.55600
C360        C  0.43589407  0.34649436  0.94854928     0.78200
O361        O  0.43203171  0.28126885  0.97088267    -0.58000
O362        O  0.39808974  0.28822024  0.85036003    -0.56400
O363        O  0.37619952  0.28414273  0.01480851    -0.56400
O364        O  0.42082666  0.33290477  0.98314390    -0.55600
O365        O  0.17088292  0.40794056  0.04744323    -0.56800
C366        C  0.14456141  0.38891812  0.88308515     0.75800
O367        O  0.21498913  0.40487480  0.99337045    -0.57900
C368        C  0.16910056  0.42688252  0.04155878     0.75800
C369        C  0.14144713  0.33980894  0.97334716     0.78200
Cd370      Cd  0.17448359  0.39634994  0.96402058     1.37500
O371        O  0.13392540  0.37921932  0.92298096    -0.56800
O372        O  0.14106349  0.35555917  0.00459464    -0.55600
C373        C  0.22892270  0.41204842  0.95495478     0.78200
O374        O  0.15989593  0.35034932  0.94135847    -0.58000
O375        O  0.16986994  0.40583830  0.88180967    -0.56400
O376        O  0.17152832  0.43329461  0.99889210    -0.56400
O377        O  0.21835574  0.41401637  0.92027348    -0.55600
O378        O  0.05797552  0.31773866  0.58372879    -0.56800
C379        C  0.08672084  0.32948416  0.71566290     0.75800
O380        O  0.01452476  0.25075029  0.61820467    -0.57900
C381        C  0.05411896  0.30228305  0.54753940     0.75800
C382        C  0.09216059  0.27008769  0.62693598     0.78200
Cd383      Cd  0.06003616  0.28984586  0.63862975     1.37500
O384        O  0.09208370  0.33635631  0.67277154    -0.56800
O385        O  0.09627270  0.28880381  0.60374523    -0.55600
C386        C  0.00280060  0.25911302  0.64416184     0.78200
O387        O  0.07247448  0.25973443  0.65690366    -0.58000
O388        O  0.06904154  0.30502241  0.72193860    -0.56400
O389        O  0.05722387  0.28414083  0.55289571    -0.56400
O390        O  0.01671472  0.27709054  0.67560770    -0.55600
O391        O  0.23426245  0.25813044  0.49726522    -0.56800
C392        C  0.26044830  0.28024472  0.66517356     0.75800
O393        O  0.26621174  0.31419681  0.54537198    -0.57900
C394        C  0.23368229  0.23794376  0.50511186     0.75800
C395        C  0.17834677  0.25912975  0.59337328     0.78200
Cd396      Cd  0.23147902  0.27183541  0.58188133     1.37500
O397        O  0.27175653  0.28726039  0.62437009    -0.56800
O398        O  0.18666849  0.25097769  0.62213072    -0.55600
C399        C  0.26537058  0.32855119  0.57941611     0.78200
O400        O  0.19382711  0.27124551  0.55816895    -0.58000
O401        O  0.23499349  0.26501563  0.66653045    -0.56400
O402        O  0.23109264  0.23258960  0.54849716    -0.56400
O403        O  0.24616457  0.31674510  0.60960874    -0.55600
O404        O  0.30847285  0.32899039  0.87883856    -0.56800
C405        C  0.34365172  0.35688304  0.00977017     0.75800
O406        O  0.38714539  0.40838130  0.94389734    -0.57900
C407        C  0.31500962  0.33843517  0.83769757     0.75800
C408        C  0.31267955  0.39783584  0.93496197     0.78200
Cd409      Cd  0.34032005  0.37325049  0.92113439     1.37500
O410        O  0.33996523  0.34256577  0.97195551    -0.56800
O411        O  0.30437999  0.37610168  0.95283520    -0.55600
C412        C  0.39691570  0.39872178  0.91573822     0.78200
O413        O  0.33444672  0.40887901  0.91007569    -0.58000
O414        O  0.34036391  0.37515290  0.00738960    -0.56400
O415        O  0.33261512  0.36327065  0.83630240    -0.56400
O416        O  0.38182425  0.38214970  0.88373192    -0.55600
O417        O  0.02201609  0.36007669  0.66115118    -0.56800
C418        C  0.03432983  0.39103525  0.53483375     0.75800
O419        O  0.95207395  0.31634928  0.61735015    -0.57900
C420        C  0.00586847  0.35361332  0.69700740     0.75800
C421        C  0.96973211  0.39168288  0.61452900     0.78200
Cd422      Cd  0.99293940  0.36231945  0.60795953     1.37500
O423        O  0.03852491  0.39996864  0.57786128    -0.56800
O424        O  0.98647757  0.39524956  0.64332427    -0.55600
C425        C  0.96259073  0.30583110  0.59430617     0.78200
O426        O  0.96222497  0.37306257  0.58280935    -0.58000
O427        O  0.01183793  0.36929086  0.52698447    -0.56400
O428        O  0.98663738  0.35556349  0.69338305    -0.56400
O429        O  0.98363073  0.32110131  0.56958784    -0.55600
O430        O  0.10576593  0.45853196  0.19136086    -0.56800
C431        C  0.09204566  0.44408608  0.36488686     0.75800
O432        O  0.08887365  0.49516504  0.24413585    -0.57900
C433        C  0.12508672  0.45736785  0.19913318     0.75800
C434        C  0.03636418  0.42542486  0.27582984     0.78200
Cd435      Cd  0.09353831  0.46309414  0.27476925     1.37500
O436        O  0.08605079  0.42986471  0.32649216    -0.56800
O437        O  0.05112134  0.42545893  0.24161047    -0.55600
C438        C  0.10770357  0.51559296  0.26603300     0.78200
O439        O  0.04761766  0.44484890  0.30596692    -0.58000
O440        O  0.10303571  0.46871865  0.36078016    -0.56400
O441        O  0.13013066  0.45882903  0.24248141    -0.56400
O442        O  0.12043235  0.51202133  0.29405512    -0.55600
O443        O  0.03153457  0.59838677  0.29801842    -0.56800
C444        C  0.05694725  0.63520214  0.17509801     0.75800
O445        O  0.11357420  0.67607755  0.23164948    -0.57900
C446        C  0.03947334  0.60665317  0.34020516     0.75800
C447        C  0.10144195  0.60281713  0.25304619     0.78200
Cd448      Cd  0.07730077  0.63155236  0.25990928     1.37500
O449        O  0.04702523  0.63600492  0.21590605    -0.56800
O450        O  0.08258185  0.59688714  0.22713438    -0.55600
C451        C  0.10948156  0.68875163  0.26449896     0.78200
O452        O  0.11064501  0.62338761  0.28057307    -0.58000
O453        O  0.07257873  0.62795515  0.17331615    -0.56400
O454        O  0.06385683  0.62590322  0.34381792    -0.56400
O455        O  0.09502069  0.67557704  0.29976690    -0.55600
O456        O  0.96772293  0.54214518  0.68416684    -0.56800
C457        C  0.98233224  0.55568863  0.51439201     0.75800
O458        O  0.01819852  0.56596523  0.63580088    -0.57900
C459        C  0.94607156  0.53963857  0.67879321     0.75800
C460        C  0.96095182  0.47849703  0.61116122     0.78200
Cd461      Cd  0.97532090  0.53118637  0.60210646     1.37500
O462        O  0.98882633  0.56825948  0.55444096    -0.56800
O463        O  0.94960569  0.48230315  0.58037611    -0.55600
C464        C  0.03249506  0.56344600  0.60393800     0.78200
O465        O  0.97746268  0.49852501  0.63688170    -0.58000
O466        O  0.96804347  0.53047388  0.51515360    -0.56400
O467        O  0.93718469  0.53287261  0.63703142    -0.56400
O468        O  0.02026635  0.54395294  0.57411710    -0.55600
C469        C  0.03264595  0.60689190  0.42837408    -0.20300
C470        C  0.02210486  0.59460915  0.38376745    -0.08300
C471        C  0.99628809  0.57044577  0.38250746     0.30500
C472        C  0.98247604  0.55811624  0.42513994    -0.20300
C473        C  0.99374891  0.57013923  0.46958418    -0.08300
C474        C  0.01867505  0.59516246  0.47055786     0.30500
F475        F  0.03077707  0.60752284  0.51227569    -0.18900
H476        H  0.05243421  0.62531170  0.43097140     0.18900
H477        H  0.96333627  0.53887342  0.42336948     0.18900
F478        F  0.98490995  0.55816441  0.34031305    -0.18800
C479        C  0.10579526  0.56803129  0.21307405    -0.20300
C480        C  0.11052994  0.58527247  0.25290759    -0.08300
C481        C  0.11966005  0.58232110  0.29456706     0.30500
C482        C  0.12100681  0.56059173  0.29775632    -0.20300
C483        C  0.11337995  0.54180474  0.25943512    -0.08300
C484        C  0.10738526  0.54658827  0.21612456     0.30500
F485        F  0.10158613  0.52963449  0.17746457    -0.18900
H486        H  0.09933500  0.57026184  0.18030496     0.18900
H487        H  0.12592670  0.55734327  0.33128651     0.18900
F488        F  0.12467895  0.59878282  0.33365354    -0.18800
C489        C  0.96803231  0.42752882  0.65684013    -0.20300
C490        C  0.96107557  0.40969802  0.61712726    -0.08300
C491        C  0.94942321  0.41202737  0.57851878     0.30500
C492        C  0.94730660  0.43345477  0.57810293    -0.20300
C493        C  0.95682746  0.45272356  0.61600574    -0.08300
C494        C  0.96602191  0.44881512  0.65640450     0.30500
F495        F  0.97461324  0.46642943  0.69458772    -0.18900
H496        H  0.97653933  0.42592666  0.68744622     0.18900
H497        H  0.93997365  0.43595332  0.54677428     0.18900
F498        F  0.94200236  0.39491704  0.53976099    -0.18800
C499        C  0.07191290  0.43301674  0.49627190    -0.20300
C500        C  0.05391141  0.40511973  0.49489644    -0.08300
C501        C  0.05271913  0.39070217  0.45264155     0.30500
C502        C  0.06749305  0.40372553  0.41187789    -0.20300
C503        C  0.08352116  0.43158430  0.41162292    -0.08300
C504        C  0.08654155  0.44623377  0.45485477     0.30500
F505        F  0.10220737  0.47322310  0.45644830    -0.18900
H506        H  0.07335838  0.44463203  0.52844798     0.18900
H507        H  0.06478373  0.39178737  0.37945129     0.18900
F508        F  0.03617155  0.36385862  0.44977345    -0.18800
C509        C  0.30008700  0.31801463  0.70684925    -0.20300
C510        C  0.27631082  0.29224441  0.70881410    -0.08300
C511        C  0.26655700  0.28073943  0.75335974     0.30500
C512        C  0.27986582  0.29532234  0.79512028    -0.20300
C513        C  0.30268420  0.32180997  0.79328426    -0.08300
C514        C  0.31290579  0.33278031  0.74830224     0.30500
F515        F  0.33468161  0.35824758  0.74409276    -0.18900
H516        H  0.30793010  0.32756786  0.67319177     0.18900
H517        H  0.27166582  0.28624752  0.82908414     0.18900
F518        F  0.24391224  0.25570622  0.75666188    -0.18800
C519        C  0.96218833  0.26622077  0.56905317    -0.20300
C520        C  0.95487464  0.27901225  0.60340161    -0.08300
C521        C  0.95212143  0.27280585  0.65137871     0.30500
C522        C  0.96356970  0.26039577  0.66556841    -0.20300
C523        C  0.97679763  0.25329197  0.63179349    -0.08300
C524        C  0.97252817  0.25273517  0.58314846     0.30500
F525        F  0.98346831  0.24441839  0.54910881    -0.18900
H526        H  0.96385180  0.27014136  0.53173949     0.18900
H527        H  0.96594319  0.26040866  0.70327260     0.18900
F528        F  0.94396944  0.28380202  0.68558985    -0.18800
C529        C  0.11923904  0.26045565  0.57209631    -0.20300
C530        C  0.11014177  0.26159649  0.61882486    -0.08300
C531        C  0.12135892  0.25852693  0.65696093     0.30500
C532        C  0.14253074  0.25580456  0.64825447    -0.20300
C533        C  0.15273651  0.25630349  0.60153662    -0.08300
C534        C  0.14030147  0.25778280  0.56337234     0.30500
F535        F  0.14920867  0.25775997  0.51772023    -0.18900
H536        H  0.11072065  0.26277549  0.54232561     0.18900
H537        H  0.15209593  0.25510550  0.67822058     0.18900
F538        F  0.11358511  0.26063981  0.70258241    -0.18800
C539        C  0.28948610  0.41523881  0.90243076    -0.20300
C540        C  0.29672486  0.40869127  0.94175852    -0.08300
C541        C  0.28480881  0.40815311  0.98672437     0.30500
C542        C  0.26445716  0.41197802  0.99116057    -0.20300
C543        C  0.25507336  0.41566778  0.95090278    -0.08300
C544        C  0.26866043  0.41852186  0.90647776     0.30500
F545        F  0.26044213  0.42232077  0.86669250    -0.18900
H546        H  0.29871847  0.41561016  0.86656838     0.18900
H547        H  0.25462753  0.41009159  0.02620245     0.18900
F548        F  0.29183452  0.40240260  0.02577616    -0.18800
C549        C  0.14042140  0.38658233  0.79427456    -0.20300
C550        C  0.12826419  0.37841071  0.83984142    -0.08300
C551        C  0.10121598  0.35639636  0.84312180     0.30500
C552        C  0.08779437  0.34139206  0.80235020    -0.20300
C553        C  0.10036455  0.34838770  0.75697963    -0.08300
C554        C  0.12651993  0.37186636  0.75305112     0.30500
F555        F  0.13943972  0.37940717  0.70987879    -0.18900
H556        H  0.16117582  0.40340318  0.79059009     0.18900
H557        H  0.06784024  0.32351494  0.80676755     0.18900
F558        F  0.08813470  0.34793076  0.88597975    -0.18800
C559        C  0.15107850  0.45269410  0.07461558    -0.20300
C560        C  0.16262148  0.43927415  0.08241077    -0.08300
C561        C  0.16451996  0.43476045  0.12961387     0.30500
C562        C  0.15359323  0.44208216  0.16770506    -0.20300
C563        C  0.14018388  0.45359328  0.15953059    -0.08300
C564        C  0.13973415  0.45959685  0.11266994     0.30500
F565        F  0.12763757  0.47142942  0.10336278    -0.18900
H566        H  0.14942546  0.45648693  0.03874653     0.18900
H567        H  0.15440060  0.43744570  0.20343218     0.18900
F568        F  0.17593185  0.42225690  0.13894345    -0.18800
C569        C  0.43685788  0.38553594  0.98122749    -0.20300
C570        C  0.44328955  0.37366370  0.94320215    -0.08300
C571        C  0.44545868  0.38183822  0.89683769     0.30500
C572        C  0.43425611  0.39534775  0.88778588    -0.20300
C573        C  0.42195112  0.40170318  0.92507452    -0.08300
C574        C  0.42631657  0.39967395  0.97229632     0.30500
F575        F  0.41546014  0.40630222  0.00957551    -0.18900
H576        H  0.43578395  0.38028176  0.01734870     0.18900
H577        H  0.43169465  0.39723755  0.85125318     0.18900
F578        F  0.45344765  0.37246650  0.85911361    -0.18800
C579        C  0.31788386  0.24512817  0.12599185    -0.20300
C580        C  0.30492764  0.21756143  0.12769837    -0.08300
C581        C  0.30550642  0.20343023  0.08606361     0.30500
C582        C  0.32086761  0.21715130  0.04551536    -0.20300
C583        C  0.33604076  0.24509790  0.04588425    -0.08300
C584        C  0.33342042  0.25877233  0.08599431     0.30500
F585        F  0.34704561  0.28561869  0.08777733    -0.18900
H586        H  0.31769557  0.25662343  0.15713400     0.18900
H587        H  0.32229563  0.20602953  0.01495872     0.18900
F588        F  0.29291047  0.17669583  0.08556627    -0.18800
C589        C  0.25962929  0.20185455  0.43359237    -0.20300
C590        C  0.25306052  0.20191775  0.38690702    -0.08300
C591        C  0.23648246  0.21029578  0.38052362     0.30500
C592        C  0.22927832  0.22109404  0.41941657    -0.20300
C593        C  0.23735490  0.22255202  0.46564593    -0.08300
C594        C  0.25146804  0.21155801  0.47261627     0.30500
F595        F  0.25907924  0.21190962  0.51673178    -0.18900
H596        H  0.27190825  0.19505349  0.43983056     0.18900
H597        H  0.21791143  0.22892238  0.41323270     0.18900
F598        F  0.22844232  0.20941922  0.33650170    -0.18800
C599        C  0.29938818  0.11277165  0.31455235    -0.20300
C600        C  0.28515708  0.11348162  0.27886881    -0.08300
C601        C  0.27242312  0.09208077  0.24480090     0.30500
C602        C  0.27518177  0.07107295  0.24539332    -0.20300
C603        C  0.29077225  0.07130225  0.27969080    -0.08300
C604        C  0.30231041  0.09212044  0.31500331     0.30500
F605        F  0.31756423  0.09334636  0.34898658    -0.18900
H606        H  0.30928904  0.12885490  0.34136585     0.18900
H607        H  0.26628126  0.05538911  0.21770849     0.18900
F608        F  0.25869235  0.09215573  0.20943268    -0.18800
C609        C  0.44601671  0.22006020  0.98107149    -0.20300
C610        C  0.44651547  0.20733243  0.93771316    -0.08300
C611        C  0.44562182  0.21669507  0.89483204     0.30500
C612        C  0.44163719  0.23675754  0.89554639    -0.20300
C613        C  0.43847315  0.24777422  0.93894117    -0.08300
C614        C  0.44187655  0.24013505  0.98185505     0.30500
F615        F  0.43843095  0.24995608  0.02453683    -0.18900
H616        H  0.44639492  0.21286430  0.01450270     0.18900
H617        H  0.43946182  0.24261706  0.86212283     0.18900
F618        F  0.44689771  0.20527646  0.85231008    -0.18800
C619        C  0.39618550  0.06548806  0.07249685    -0.20300
C620        C  0.41309086  0.09340032  0.07579566    -0.08300
C621        C  0.41450295  0.10664223  0.11999835     0.30500
C622        C  0.39823630  0.09206447  0.15907880    -0.20300
C623        C  0.37988456  0.06423588  0.15437820    -0.08300
C624        C  0.37941880  0.05112326  0.11082136     0.30500
F625        F  0.36194689  0.02441192  0.10436028    -0.18900
H626        H  0.39434069  0.05468928  0.03899142     0.18900
H627        H  0.39889724  0.10268320  0.19225332     0.18900
F628        F  0.43039991  0.13361495  0.12480266    -0.18800
C629        C  0.47670815  0.10995614  0.73975985    -0.20300
C630        C  0.48780760  0.09614433  0.74779054    -0.08300
C631        C  0.49085471  0.09282570  0.79511596     0.30500
C632        C  0.48177999  0.10203702  0.83334256    -0.20300
C633        C  0.46906258  0.11422937  0.82517859    -0.08300
C634        C  0.46711441  0.11866124  0.77801334     0.30500
F635        F  0.45549258  0.13098355  0.76883804    -0.18900
H636        H  0.47422828  0.11285969  0.70377218     0.18900
H637        H  0.48349066  0.09842780  0.86933100     0.18900
F638        F  0.50199309  0.08007691  0.80453755    -0.18800
C639        C  0.28936209  0.92633984  0.24066883    -0.20300
C640        C  0.28196522  0.93869658  0.27589261    -0.08300
C641        C  0.28002297  0.93243430  0.32373607     0.30500
C642        C  0.29135397  0.91960240  0.33644504    -0.20300
C643        C  0.30405225  0.91236001  0.30164706    -0.08300
C644        C  0.30024363  0.91310840  0.25330441     0.30500
F645        F  0.31180833  0.90600215  0.21825646    -0.18900
H646        H  0.29054781  0.93030300  0.20348474     0.18900
H647        H  0.29361955  0.91886989  0.37391350     0.18900
F648        F  0.27160288  0.94265601  0.35907537    -0.18800
C649        C  0.41302489  0.99776003  0.46954089    -0.20300
C650        C  0.42567539  0.00352621  0.42401703    -0.08300
C651        C  0.45237296  0.02602246  0.41949736     0.30500
C652        C  0.46661824  0.04101594  0.46015258    -0.20300
C653        C  0.45441461  0.03423216  0.50597052    -0.08300
C654        C  0.42697715  0.01307268  0.50996128     0.30500
F655        F  0.41398521  0.00581699  0.55317481    -0.18900
H656        H  0.39251704  0.98065018  0.47425249     0.18900
H657        H  0.48768061  0.05710587  0.45588378     0.18900
F658        F  0.46539475  0.03231622  0.37625291    -0.18800
C659        C  0.47358457  0.91837194  0.24838740    -0.20300
C660        C  0.48150032  0.91381605  0.28959244    -0.08300
C661        C  0.46585631  0.90896303  0.33204626     0.30500
C662        C  0.44374181  0.91044130  0.33360986    -0.20300
C663        C  0.43717887  0.91700905  0.29306326    -0.08300
C664        C  0.45169865  0.91995940  0.25000550     0.30500
F665        F  0.44539860  0.92550144  0.20978364    -0.18900
H666        H  0.48514845  0.92194812  0.21523258     0.18900
H667        H  0.43300157  0.90837028  0.36723891     0.18900
F668        F  0.47331876  0.90522945  0.37291820    -0.18800
C669        C  0.61782987  0.07969948  0.66792970    -0.20300
C670        C  0.62850882  0.07615195  0.62444795    -0.08300
C671        C  0.61857988  0.07683931  0.58168763     0.30500
C672        C  0.59649933  0.07825346  0.58279582    -0.20300
C673        C  0.58414731  0.07906246  0.62644575    -0.08300
C674        C  0.59602434  0.08140853  0.66903528     0.30500
F675        F  0.58556786  0.08374292  0.71189515    -0.18900
H676        H  0.62543009  0.07963773  0.70130775     0.18900
H677        H  0.58776130  0.07650954  0.54953534     0.18900
F678        F  0.62828706  0.07330808  0.53897052    -0.18800
C679        C  0.63785302  0.97591670  0.47221057    -0.20300
C680        C  0.62451325  0.97759823  0.51358187    -0.08300
C681        C  0.59627686  0.96228705  0.51500593     0.30500
C682        C  0.58203390  0.94734439  0.47414647    -0.20300
C683        C  0.59571700  0.94721100  0.43156636    -0.08300
C684        C  0.62378531  0.96080034  0.43192948     0.30500
F685        F  0.63811543  0.96128542  0.39221231    -0.18900
H686        H  0.65940192  0.98728632  0.47026366     0.18900
H687        H  0.56049345  0.93722280  0.47499582     0.18900
F688        F  0.58262426  0.96351756  0.55430089    -0.18800
C689        C  0.40990469  0.94193780  0.56720323    -0.20300
C690        C  0.39039510  0.93533874  0.60374436    -0.08300
C691        C  0.39823944  0.94167898  0.65133702     0.30500
C692        C  0.42535528  0.95855644  0.66142678    -0.20300
C693        C  0.44482592  0.96953158  0.62421713    -0.08300
C694        C  0.43714127  0.95884209  0.57735784     0.30500
F695        F  0.45551160  0.96784003  0.54048373    -0.18900
H696        H  0.40425428  0.93664825  0.53036228     0.18900
H697        H  0.43078557  0.96581839  0.69794116     0.18900
F698        F  0.37974826  0.93411814  0.68787212    -0.18800
C699        C  0.34638412  0.97571515  0.43015420    -0.20300
C700        C  0.33063456  0.97364521  0.47098337    -0.08300
C701        C  0.31979965  0.98857102  0.47469067     0.30500
C702        C  0.32393671  0.00434710  0.43751271    -0.20300
C703        C  0.33871825  0.00542128  0.39576781    -0.08300
C704        C  0.35049541  0.99141798  0.39300186     0.30500
F705        F  0.36453495  0.99142774  0.35320470    -0.18900
H706        H  0.35465854  0.96428110  0.42608626     0.18900
H707        H  0.31427150  0.01457597  0.44040660     0.18900
F708        F  0.30411545  0.98698368  0.51300576    -0.18800
C709        C  0.30950038  0.03441928  0.99953752    -0.20300
C710        C  0.30270946  0.01562463  0.96158623    -0.08300
C711        C  0.31116205  0.02424960  0.91498166     0.30500
C712        C  0.33015489  0.05110161  0.90750081    -0.20300
C713        C  0.34112159  0.06945597  0.94647250    -0.08300
C714        C  0.32863703  0.06148541  0.99201930     0.30500
F715        F  0.33765737  0.07902493  0.03027636    -0.18900
H716        H  0.30277878  0.02805247  0.03561015     0.18900
H717        H  0.33883720  0.05689586  0.87193201     0.18900
F718        F  0.30393071  0.00638514  0.87737103    -0.18800
C719        C  0.28535493  0.94128120  0.79715442    -0.20300
C720        C  0.28702727  0.92497095  0.82644141    -0.08300
C721        C  0.29065848  0.90585557  0.80495888     0.30500
C722        C  0.29291073  0.90339254  0.75535952    -0.20300
C723        C  0.29202033  0.92016035  0.72594635    -0.08300
C724        C  0.28809983  0.93915637  0.74742791     0.30500
F725        F  0.28741882  0.95599445  0.72068399    -0.18900
H726        H  0.28258884  0.95620893  0.81288628     0.18900
H727        H  0.29589108  0.88855967  0.74001670     0.18900
F728        F  0.29174000  0.88930881  0.83178858    -0.18800
C729        C  0.33852351  0.96922620  0.13396081    -0.20300
C730        C  0.33570395  0.95277310  0.09368753    -0.08300
C731        C  0.34908140  0.94034000  0.09209205     0.30500
C732        C  0.36399004  0.94354091  0.13065465    -0.20300
C733        C  0.36638523  0.95957274  0.17140187    -0.08300
C734        C  0.35414546  0.97312302  0.17191189     0.30500
F735        F  0.35608109  0.98907213  0.21003482    -0.18900
H736        H  0.32819331  0.97878398  0.13646592     0.18900
H737        H  0.37287617  0.93258901  0.12928950     0.18900
F738        F  0.34646241  0.92377994  0.05456130    -0.18800
C739        C  0.09599186  0.62902516  0.62608133    -0.20300
C740        C  0.10308817  0.63677689  0.57879959    -0.08300
C741        C  0.09342751  0.61703928  0.54166532     0.30500
C742        C  0.07264074  0.59075079  0.55151674    -0.20300
C743        C  0.06133286  0.58445350  0.59801190    -0.08300
C744        C  0.07482401  0.60307826  0.63578216     0.30500
F745        F  0.06504510  0.59741973  0.68134008    -0.18900
H746        H  0.10392382  0.64385038  0.65539376     0.18900
H747        H  0.06283610  0.57648033  0.52187749     0.18900
F748        F  0.10071254  0.62365413  0.49557312    -0.18800
C749        C  0.21909456  0.78854284  0.54136461    -0.20300
C750        C  0.19605009  0.78520951  0.52582008    -0.08300
C751        C  0.19797295  0.80736672  0.51051716     0.30500
C752        C  0.22212423  0.83254831  0.51346084    -0.20300
C753        C  0.24472824  0.83616228  0.53181354    -0.08300
C754        C  0.24324451  0.81378603  0.54455713     0.30500
F755        F  0.26446796  0.81643519  0.56330380    -0.18900
H756        H  0.21808018  0.77182605  0.55369470     0.18900
H757        H  0.22280917  0.84944723  0.50317216     0.18900
F758        F  0.17625714  0.80499175  0.49476601    -0.18800
C759        C  0.17656187  0.81548785  0.00209575    -0.20300
C760        C  0.15310195  0.81420383  0.99849811    -0.08300
C761        C  0.15479483  0.83800480  0.00101489     0.30500
C762        C  0.17981497  0.86256406  0.00418493    -0.20300
C763        C  0.20341908  0.86372413  0.00455717    -0.08300
C764        C  0.20145166  0.83987396  0.00483635     0.30500
F765        F  0.22363389  0.83994529  0.00582658    -0.18900
H766        H  0.17587669  0.79750403  0.00058446     0.18900
H767        H  0.18079963  0.88064977  0.00414929     0.18900
F768        F  0.13252507  0.83764197  0.99861911    -0.18800
C769        C  0.07737956  0.71144950  0.77802624    -0.20300
C770        C  0.09954808  0.72861292  0.80657667    -0.08300
C771        C  0.12507323  0.74519306  0.78437164     0.30500
C772        C  0.12820241  0.74423612  0.73465416    -0.20300
C773        C  0.10597303  0.72699736  0.70610638    -0.08300
C774        C  0.08044330  0.71072802  0.72840223     0.30500
F775        F  0.05840709  0.69366603  0.70248621    -0.18900
H776        H  0.05748519  0.69880891  0.79408890     0.18900
H777        H  0.14810329  0.75681073  0.71853867     0.18900
F778        F  0.14706970  0.76205886  0.81053747    -0.18800
C779        C  0.04866668  0.67808378  0.10210626    -0.20300
C780        C  0.06110046  0.67750837  0.05833264    -0.08300
C781        C  0.06801462  0.65931663  0.05097568     0.30500
C782        C  0.06439596  0.64365020  0.08804845    -0.20300
C783        C  0.05344961  0.64549160  0.13279895    -0.08300
C784        C  0.04444517  0.66200973  0.13864131     0.30500
F785        F  0.03356600  0.66437152  0.18093343    -0.18900
H786        H  0.04326768  0.69193307  0.10905514     0.18900
H787        H  0.07156184  0.63115261  0.08252676     0.18900
F788        F  0.07982095  0.65783015  0.00917528    -0.18800
C789        C  0.30679823  0.37003827  0.55057971    -0.20300
C790        C  0.28801239  0.35655951  0.58779958    -0.08300
C791        C  0.29521625  0.36655969  0.63505288     0.30500
C792        C  0.32200601  0.38613021  0.64497177    -0.20300
C793        C  0.34170183  0.39583269  0.60803428    -0.08300
C794        C  0.33356412  0.38985548  0.56052734     0.30500
F795        F  0.35185519  0.40000434  0.52359941    -0.18900
H796        H  0.30152444  0.36308133  0.51395196     0.18900
H797        H  0.32766207  0.39088452  0.68180359     0.18900
F798        F  0.27757672  0.35440304  0.67223191    -0.18800
C799        C  0.37682240  0.32891268  0.81639897    -0.20300
C800        C  0.38491347  0.31167315  0.80964929    -0.08300
C801        C  0.39616319  0.31035100  0.76473177     0.30500
C802        C  0.40031654  0.32684684  0.72859752    -0.20300
C803        C  0.39371908  0.34524611  0.73654951    -0.08300
C804        C  0.38138682  0.34563383  0.78067405     0.30500
F805        F  0.37469955  0.36300789  0.79018418    -0.18900
H806        H  0.36830567  0.33062941  0.85046153     0.18900
H807        H  0.40971873  0.32595306  0.69498088     0.18900
F808        F  0.40427519  0.29401525  0.75626582    -0.18800
C809        C  0.39145793  0.25660978  0.21174688    -0.20300
C810        C  0.38156252  0.24905314  0.25848517    -0.08300
C811        C  0.39635416  0.26637170  0.29681118     0.30500
C812        C  0.41839646  0.29223590  0.28836887    -0.20300
C813        C  0.42521663  0.30131076  0.24183091    -0.08300
C814        C  0.41306117  0.28271345  0.20325102     0.30500
F815        F  0.41933205  0.29049024  0.15767983    -0.18900
H816        H  0.38042621  0.24340435  0.18162196     0.18900
H817        H  0.42790094  0.30601863  0.31871263     0.18900
F818        F  0.38789639  0.25923940  0.34240606    -0.18800
C819        C  0.40942173  0.37734305  0.40142279    -0.20300
C820        C  0.43537592  0.39127923  0.38017383    -0.08300
C821        C  0.45753686  0.40529449  0.40990951     0.30500
C822        C  0.45367580  0.40563288  0.45948723    -0.20300
C823        C  0.42774895  0.39169434  0.48074607    -0.08300
C824        C  0.40556512  0.37737915  0.45107463     0.30500
F825        F  0.38009866  0.36385516  0.46983676    -0.18900
H826        H  0.39198418  0.36613658  0.37956171     0.18900
H827        H  0.47111488  0.41691066  0.48135278     0.18900
F828        F  0.48302479  0.41859233  0.39128951    -0.18800
C829        C  0.35683374  0.37034061  0.09448116    -0.20300
C830        C  0.35469228  0.35502836  0.05279529    -0.08300
C831        C  0.36827122  0.34278068  0.04945694     0.30500
C832        C  0.38439869  0.34667668  0.08612659    -0.20300
C833        C  0.38741348  0.36280874  0.12698049    -0.08300
C834        C  0.37304317  0.37427882  0.13125271     0.30500
F835        F  0.37557434  0.39027417  0.16975586    -0.18900
H836        H  0.34699559  0.38044618  0.09762772     0.18900
H837        H  0.39537008  0.33775821  0.08158199     0.18900
F838        F  0.36775614  0.32876133  0.00922415    -0.18800
C839        C  0.51316391  0.53066956  0.67933937    -0.20300
C840        C  0.53630703  0.53172266  0.68573358    -0.08300
C841        C  0.53367550  0.50784019  0.69107393     0.30500
C842        C  0.50893092  0.48347255  0.68575014    -0.20300
C843        C  0.48619841  0.48224071  0.67535675    -0.08300
C844        C  0.48822828  0.50611693  0.67420624     0.30500
F845        F  0.46660059  0.50583362  0.66527180    -0.18900
H846        H  0.51462007  0.54873880  0.67524221     0.18900
H847        H  0.50787179  0.46544963  0.68778844     0.18900
F848        F  0.55529309  0.50781131  0.69859179    -0.18800
C849        C  0.57139260  0.47907160  0.19337965    -0.20300
C850        C  0.57148286  0.50187035  0.19307501    -0.08300
C851        C  0.54780392  0.49894256  0.18260603     0.30500
C852        C  0.52391704  0.47366871  0.17816240    -0.20300
C853        C  0.52316573  0.45091936  0.18429772    -0.08300
C854        C  0.54741437  0.45369302  0.18878117     0.30500
F855        F  0.54773001  0.43210425  0.19245628    -0.18900
H856        H  0.58951962  0.48083055  0.20034517     0.18900
H857        H  0.50564292  0.47205765  0.17325693     0.18900
F858        F  0.54732690  0.52046751  0.17937110    -0.18800
C859        C  0.62380015  0.56213425  0.42537187    -0.20300
C860        C  0.61530878  0.57313040  0.39626692    -0.08300
C861        C  0.60231521  0.58443744  0.41747238     0.30500
C862        C  0.59906384  0.58574271  0.46696444    -0.20300
C863        C  0.60897523  0.57612588  0.49614538    -0.08300
C864        C  0.62082960  0.56371430  0.47485549     0.30500
F865        F  0.63025959  0.55380206  0.50173589    -0.18900
H866        H  0.63377268  0.55318829  0.40991149     0.18900
H867        H  0.58978306  0.59536046  0.48248709     0.18900
F868        F  0.59329684  0.59476210  0.39063423    -0.18800
C869        C  0.69045906  0.66084093  0.07625641    -0.20300
C870        C  0.68807602  0.68208680  0.08524923    -0.08300
C871        C  0.67606898  0.68370096  0.12908650     0.30500
C872        C  0.66587098  0.66380820  0.16205877    -0.20300
C873        C  0.66703716  0.64181620  0.15147675    -0.08300
C874        C  0.67981140  0.64084290  0.10843865     0.30500
F875        F  0.68207457  0.62041419  0.09713513    -0.18900
H876        H  0.69920431  0.65874060  0.04282887     0.18900
H877        H  0.65635540  0.66519111  0.19512579     0.18900
F878        F  0.67308873  0.70376855  0.13921180    -0.18800
C879        C  0.67658306  0.72557861  0.61706408    -0.20300
C880        C  0.69550260  0.73069257  0.57989888    -0.08300
C881        C  0.69039395  0.70997510  0.54707278     0.30500
C882        C  0.66864943  0.68404906  0.55532133    -0.20300
C883        C  0.65225367  0.67846519  0.59682181    -0.08300
C884        C  0.65511506  0.69948761  0.62588511     0.30500
F885        F  0.63960333  0.69474734  0.66618418    -0.18900
H886        H  0.68006689  0.74129622  0.64258380     0.18900
H887        H  0.66629813  0.66804289  0.53181781     0.18900
F888        F  0.70781091  0.71428033  0.50992533    -0.18800
C889        C  0.74588070  0.74165177  0.75115686    -0.20300
C890        C  0.76229620  0.76951043  0.74861167    -0.08300
C891        C  0.76713728  0.78509203  0.79136229     0.30500
C892        C  0.75439556  0.77288605  0.83465578    -0.20300
C893        C  0.73642891  0.74501291  0.83611588    -0.08300
C894        C  0.73311610  0.72957532  0.79400235     0.30500
F895        F  0.71669525  0.70264373  0.79368704    -0.18900
H896        H  0.74180380  0.72895722  0.71926126     0.18900
H897        H  0.75738007  0.78533063  0.86651663     0.18900
F898        F  0.78286818  0.81203552  0.79101703    -0.18800
C899        C  0.75734397  0.06891994  0.67258119    -0.20300
C900        C  0.75445683  0.07162066  0.62483043    -0.08300
C901        C  0.76763018  0.06542233  0.58902217     0.30500
C902        C  0.77765464  0.05108147  0.59986310    -0.20300
C903        C  0.77358744  0.04202974  0.64592262    -0.08300
C904        C  0.76669826  0.05393443  0.68316516     0.30500
F905        F  0.76501331  0.04762980  0.72880068    -0.18900
H906        H  0.74811264  0.07423952  0.70132136     0.18900
H907        H  0.78382141  0.04292313  0.57051178     0.18900
F908        F  0.76670297  0.06913259  0.54271256    -0.18800
C909        C  0.74505816  0.88317706  0.58080669    -0.20300
C910        C  0.76038878  0.90661241  0.60947332    -0.08300
C911        C  0.78207819  0.91086394  0.63321050     0.30500
C912        C  0.78735638  0.89141691  0.62984180    -0.20300
C913        C  0.77110506  0.86745330  0.60287042    -0.08300
C914        C  0.75024208  0.86387999  0.57745244     0.30500
F915        F  0.73439518  0.84147490  0.54974714    -0.18900
H916        H  0.72843650  0.87935982  0.56156061     0.18900
H917        H  0.80360576  0.89474840  0.64952266     0.18900
F918        F  0.79779047  0.93344077  0.66048776    -0.18800
C919        C  0.65545892  0.77327313  0.00833937    -0.20300
C920        C  0.64590830  0.75383855  0.97095618    -0.08300
C921        C  0.62920529  0.75267684  0.93777093     0.30500
C922        C  0.62380747  0.77201265  0.94056591    -0.20300
C923        C  0.63500119  0.79254233  0.97646733    -0.08300
C924        C  0.65018733  0.79238911  0.01113334     0.30500
F925        F  0.66114100  0.81151998  0.04681006    -0.18900
H926        H  0.66798882  0.77434695  0.03475051     0.18900
H927        H  0.61220161  0.77179737  0.91330127     0.18900
F928        F  0.61963477  0.73408431  0.90109063    -0.18800
C929        C  0.64833353  0.87597974  0.78896974    -0.20300
C930        C  0.64362110  0.88988395  0.82575150    -0.08300
C931        C  0.65050199  0.91530532  0.81722279     0.30500
C932        C  0.66432040  0.92752057  0.77483833    -0.20300
C933        C  0.67096663  0.91441205  0.73983683    -0.08300
C934        C  0.66191037  0.88809844  0.74644109     0.30500
F935        F  0.66860661  0.87509339  0.71403008    -0.18900
H936        H  0.64355205  0.85653038  0.79460408     0.18900
H937        H  0.67077132  0.94764682  0.77016054     0.18900
F938        F  0.64521897  0.92894468  0.85086486    -0.18800
C939        C  0.62313083  0.89978546  0.13001725    -0.20300
C940        C  0.60553736  0.88342822  0.09339765    -0.08300
C941        C  0.57862445  0.87494413  0.09897120     0.30500
C942        C  0.56959920  0.88225956  0.14060240    -0.20300
C943        C  0.58731761  0.89876846  0.17691964    -0.08300
C944        C  0.61434203  0.90766162  0.17085005     0.30500
F945        F  0.63246111  0.92414765  0.20420763    -0.18900
H946        H  0.64402341  0.90695567  0.12681697     0.18900
H947        H  0.54892696  0.87573884  0.14370132     0.18900
F948        F  0.56110929  0.86004465  0.06397139    -0.18800
C949        C  0.63814387  0.58977292  0.91898094    -0.20300
C950        C  0.63972653  0.58448208  0.96560345    -0.08300
C951        C  0.62828565  0.59180847  0.00301409     0.30500
C952        C  0.62352464  0.61090735  0.99590619    -0.20300
C953        C  0.62952090  0.62197410  0.95109257    -0.08300
C954        C  0.63341553  0.60883366  0.91170681     0.30500
F955        F  0.63711450  0.61747945  0.86727654    -0.18900
H956        H  0.64590460  0.58359307  0.88903763     0.18900
H957        H  0.61925003  0.61976222  0.02673366     0.18900
F958        F  0.62681297  0.58461948  0.04791495    -0.18800
C959        C  0.69390120  0.64268911  0.82428578    -0.20300
C960        C  0.70457924  0.62781315  0.82433128    -0.08300
C961        C  0.70165054  0.61135446  0.78388684     0.30500
C962        C  0.68620115  0.60805125  0.74635494    -0.20300
C963        C  0.67326299  0.62089614  0.74858506    -0.08300
C964        C  0.67827684  0.63921835  0.78693334     0.30500
F965        F  0.66685347  0.65269742  0.78984055    -0.18900
H966        H  0.69593068  0.65557108  0.85481089     0.18900
H967        H  0.68320157  0.59431023  0.71677265     0.18900
F968        F  0.71243153  0.59727749  0.78165876    -0.18800
C969        C  0.75741213  0.62969300  0.31899657    -0.20300
C970        C  0.77467968  0.63984662  0.27867922    -0.08300
C971        C  0.76504732  0.62703962  0.23367932     0.30500
C972        C  0.73756040  0.60768277  0.22849941    -0.20300
C973        C  0.71975922  0.60105529  0.26805975    -0.08300
C974        C  0.73006746  0.61039631  0.31378928     0.30500
F975        F  0.71335497  0.60321360  0.35300282    -0.18900
H976        H  0.76450022  0.63877358  0.35403318     0.18900
H977        H  0.72999206  0.60044581  0.19302092     0.18900
F978        F  0.78129630  0.63583023  0.19389040    -0.18800
C979        C  0.80992497  0.70865872  0.10298725    -0.20300
C980        C  0.79757751  0.70847707  0.14740883    -0.08300
C981        C  0.76932038  0.69284513  0.15142078     0.30500
C982        C  0.75405872  0.67613646  0.11315250    -0.20300
C983        C  0.76645877  0.67540764  0.06963287    -0.08300
C984        C  0.79452082  0.69239494  0.06432192     0.30500
F985        F  0.80715015  0.69134666  0.02328850    -0.18900
H986        H  0.83156081  0.72012394  0.09897609     0.18900
H987        H  0.73262569  0.66298517  0.11824059     0.18900
F988        F  0.75633059  0.69184500  0.19342126    -0.18800
C989        C  0.83568409  0.76464507  0.44602256    -0.20300
C990        C  0.83215806  0.76941974  0.40025846    -0.08300
C991        C  0.82380700  0.78615412  0.39648044     0.30500
C992        C  0.81777055  0.79656860  0.43760828    -0.20300
C993        C  0.82014111  0.79079745  0.48342845    -0.08300
C994        C  0.82993026  0.77527398  0.48710082     0.30500
F995        F  0.83231613  0.76886456  0.53030569    -0.18900
H996        H  0.84217560  0.75193282  0.45015969     0.18900
H997        H  0.81017369  0.80833003  0.43352687     0.18900
F998        F  0.81997100  0.79125859  0.35320514    -0.18800
C999        C  0.10075434  0.74297861  0.28578415    -0.20300
C1000       C  0.09457893  0.74315199  0.23889929    -0.08300
C1001       C  0.10608093  0.73594594  0.20135729     0.30500
C1002       C  0.11700347  0.72223921  0.21088835    -0.20300
C1003       C  0.11618314  0.71553792  0.25775628    -0.08300
C1004       C  0.11117961  0.72881649  0.29538098     0.30500
F1005       F  0.11199534  0.72440659  0.34132198    -0.18900
H1006       H  0.09291190  0.74920566  0.31552970     0.18900
H1007       H  0.12163813  0.71304853  0.18106731     0.18900
F1008       F  0.10214191  0.73754684  0.15545886    -0.18800
C1009       C  0.95765754  0.74801479  0.23110906    -0.20300
C1010       C  0.96197377  0.73733456  0.26843899    -0.08300
C1011       C  0.94558174  0.73086783  0.31010721     0.30500
C1012       C  0.92377172  0.73249002  0.31245936    -0.20300
C1013       C  0.91785032  0.74078732  0.27364835    -0.08300
C1014       C  0.93571574  0.74980459  0.23362316     0.30500
F1015       F  0.93089456  0.75835598  0.19564407    -0.18900
H1016       H  0.97012272  0.75324752  0.19873415     0.18900
H1017       H  0.91073255  0.72606846  0.34417961     0.18900
F1018       F  0.94986094  0.72175537  0.34793802    -0.18800
C1019       C  0.04450724  0.67628828  0.36874768    -0.20300
C1020       C  0.02999356  0.68757075  0.37344429    -0.08300
C1021       C  0.03013763  0.70051311  0.41725975     0.30500
C1022       C  0.04581693  0.70356630  0.45412060    -0.20300
C1023       C  0.06173754  0.69388421  0.44827681    -0.08300
C1024       C  0.06037600  0.67955865  0.40560079     0.30500
F1025       F  0.07568267  0.67016367  0.39828987    -0.18900
H1026       H  0.04498073  0.66640748  0.33540008     0.18900
H1027       H  0.04624692  0.71445777  0.48671852     0.18900
F1028       F  0.01618747  0.71145361  0.42384020    -0.18800
C1029       C  0.95936284  0.69370089  0.96829821    -0.20300
C1030       C  0.95111525  0.68393079  0.92152530    -0.08300
C1031       C  0.96915131  0.69724566  0.88330147     0.30500
C1032       C  0.99612242  0.71683739  0.89188541    -0.20300
C1033       C  0.00531498  0.72295586  0.93856083    -0.08300
C1034       C  0.98640735  0.71296814  0.97696022     0.30500
F1035       F  0.99431597  0.71877901  0.02266357    -0.18900
H1036       H  0.94573944  0.68385998  0.99842284     0.18900
H1037       H  0.01019774  0.72473983  0.86170407     0.18900
F1038       F  0.96149503  0.68893302  0.83766739    -0.18800
C1039       C  0.80049792  0.57498675  0.96740743    -0.20300
C1040       C  0.81471093  0.58073368  0.92331411    -0.08300
C1041       C  0.80608797  0.58723996  0.88566675     0.30500
C1042       C  0.78479602  0.58963980  0.89306414    -0.20300
C1043       C  0.77171416  0.58569274  0.93798947    -0.08300
C1044       C  0.77922017  0.57763559  0.97493003     0.30500
F1045       F  0.76773482  0.57472962  0.01925987    -0.18900
H1046       H  0.80714375  0.57042109  0.99710319     0.18900
H1047       H  0.77925315  0.59575487  0.86400521     0.18900
F1048       F  0.81906333  0.59256270  0.84230731    -0.18800
C1049       C  0.96429562  0.64386978  0.03976155    -0.20300
C1050       C  0.93833015  0.62044321  0.04473958    -0.08300
C1051       C  0.92760491  0.61193858  0.09090966     0.30500
C1052       C  0.94250432  0.62714191  0.13104407    -0.20300
C1053       C  0.96791602  0.65138132  0.12571212    -0.08300
C1054       C  0.97869176  0.65935424  0.07938641     0.30500
F1055       F  0.00274561  0.68277683  0.07190607    -0.18900
H1056       H  0.97301245  0.65128857  0.00486706     0.18900
H1057       H  0.93367426  0.62057201  0.16623323     0.18900
F1058       F  0.90255328  0.58948990  0.09732733    -0.18800
C1059       C  0.90548784  0.56023360  0.75213850    -0.20300
C1060       C  0.91211858  0.56023668  0.79878703    -0.08300
C1061       C  0.92846270  0.55167510  0.80554534     0.30500
C1062       C  0.93865432  0.54424195  0.76631449    -0.20300
C1063       C  0.93262654  0.54491379  0.71958724    -0.08300
C1064       C  0.91542094  0.55245302  0.71288486     0.30500
F1065       F  0.90933348  0.55368477  0.66841871    -0.18900
H1066       H  0.89305009  0.56687592  0.74592338     0.18900
H1067       H  0.95184206  0.53849216  0.77250924     0.18900
F1068       F  0.93589868  0.55191930  0.84977310    -0.18800
C1069       C  0.07245040  0.28061799  0.99607450    -0.20300
C1070       C  0.06544237  0.27151419  0.94857469    -0.08300
C1071       C  0.08594497  0.27855884  0.91372916     0.30500
C1072       C  0.11263584  0.29828482  0.92456706    -0.20300
C1073       C  0.11886953  0.31139811  0.96989920    -0.08300
C1074       C  0.09907732  0.30053089  0.00680374     0.30500
F1075       F  0.10473231  0.31159543  0.05181356    -0.18900
H1076       H  0.05705879  0.27494472  0.02393827     0.18900
H1077       H  0.12768301  0.30573883  0.89576940     0.18900
F1078       F  0.07997259  0.26866519  0.86813037    -0.18800
C1079       C  0.01867189  0.31444764  0.77240133    -0.20300
C1080       C  0.00154134  0.30982833  0.81252248    -0.08300
C1081       C  0.98743910  0.32157975  0.81566821     0.30500
C1082       C  0.99041451  0.33736998  0.77943718    -0.20300
C1083       C  0.00739420  0.34177407  0.73916376    -0.08300
C1084       C  0.02185731  0.33044006  0.73639812     0.30500
F1085       F  0.03763843  0.33321664  0.69739281    -0.18900
H1086       H  0.02886620  0.30485230  0.76797277     0.18900
H1087       H  0.97849977  0.34526012  0.78201252     0.18900
F1088       F  0.96958953  0.31664543  0.85229882    -0.18800
C1089       C  0.97471351  0.35709064  0.25578365    -0.20300
C1090       C  0.96868472  0.34890864  0.30286215    -0.08300
C1091       C  0.97917647  0.36827803  0.34055398     0.30500
C1092       C  0.99895606  0.39487380  0.33083517    -0.20300
C1093       C  0.00859440  0.40208938  0.28374492    -0.08300
C1094       C  0.99485206  0.38344727  0.24612758     0.30500
F1095       F  0.00303874  0.38988072  0.20017761    -0.18900
H1096       H  0.96635580  0.34252099  0.22620235     0.18900
H1097       H  0.00916167  0.40900735  0.36048743     0.18900
F1098       F  0.97354023  0.36112983  0.38650043    -0.18800
C1099       C  0.99024140  0.27831543  0.14769411    -0.20300
C1100       C  0.96414620  0.26364797  0.16836259    -0.08300
C1101       C  0.94220762  0.25019542  0.13812489     0.30500
C1102       C  0.94639629  0.25082889  0.08857862    -0.20300
C1103       C  0.97245054  0.26537596  0.06793766    -0.08300
C1104       C  0.99441331  0.27935860  0.09807415     0.30500
F1105       F  0.01995869  0.29321111  0.07965083    -0.18900
H1106       H  0.00750066  0.28918121  0.16998376     0.18900
H1107       H  0.92916669  0.23978837  0.06623793     0.18900
F1108       F  0.91661079  0.23625948  0.15628068    -0.18800
C1109       C  0.01311170  0.30931558  0.46614499    -0.20300
C1110       C  0.01006342  0.29200655  0.42729493    -0.08300
C1111       C  0.02491799  0.28109729  0.42552732     0.30500
C1112       C  0.04111982  0.28625973  0.46328601    -0.20300
C1113       C  0.04337046  0.30289286  0.50287944    -0.08300
C1114       C  0.03024033  0.31542937  0.50273282     0.30500
F1115       F  0.03250544  0.33222006  0.53950225    -0.18900
H1116       H  0.00159719  0.31760279  0.46895001     0.18900
H1117       H  0.05093099  0.27623053  0.46253277     0.18900
F1118       F  0.02268842  0.26428209  0.38880777    -0.18800
C1119       C  0.65557749  0.05278169  0.31818122    -0.20300
C1120       C  0.67302187  0.05384089  0.28153153    -0.08300
C1121       C  0.66250426  0.04079280  0.23716260     0.30500
C1122       C  0.63487486  0.02276802  0.23298958    -0.20300
C1123       C  0.61771087  0.01731371  0.27319765    -0.08300
C1124       C  0.62785091  0.03465465  0.31393002     0.30500
F1125       F  0.61140457  0.03137254  0.35212722    -0.18900
H1126       H  0.66327151  0.06339162  0.35215122     0.18900
H1127       H  0.62748729  0.01031315  0.20055226     0.18900
F1128       F  0.67888041  0.04269496  0.19978314    -0.18800
C1129       C  0.84488444  0.15165799  0.36570727    -0.20300
C1130       C  0.82187863  0.14982042  0.35455723    -0.08300
C1131       C  0.82427628  0.17337998  0.34689029     0.30500
C1132       C  0.84946365  0.19789272  0.34755517    -0.20300
C1133       C  0.87270009  0.19939364  0.35552361    -0.08300
C1134       C  0.87001182  0.17610252  0.36624739     0.30500
F1135       F  0.89176513  0.17669243  0.37560253    -0.18900
H1136       H  0.84363484  0.13394663  0.37221505     0.18900
H1137       H  0.85093246  0.21550242  0.33926945     0.18900
F1138       F  0.80268651  0.17264260  0.33570104    -0.18800
C1139       C  0.71419274  0.01307576  0.46318250    -0.20300
C1140       C  0.72638821  0.01188843  0.41947925    -0.08300
C1141       C  0.73231568  0.99287630  0.41280445     0.30500
C1142       C  0.72825451  0.97724988  0.45042613    -0.20300
C1143       C  0.71753022  0.97966968  0.49495888    -0.08300
C1144       C  0.70955195  0.99701594  0.50030382     0.30500
F1145       F  0.69928134  0.00009082  0.54273356    -0.18900
H1146       H  0.70914470  0.02725653  0.46945051     0.18900
H1147       H  0.73443695  0.96390903  0.44527367     0.18900
F1148       F  0.74291037  0.98999179  0.37060922    -0.18800
C1149       C  0.73673079  0.93040603  0.90435889    -0.20300
C1150       C  0.72734144  0.92392150  0.95157829    -0.08300
C1151       C  0.74313807  0.94159517  0.98881826     0.30500
C1152       C  0.76551116  0.96712590  0.97873932    -0.20300
C1153       C  0.77192896  0.97530558  0.93155921    -0.08300
C1154       C  0.75884305  0.95599843  0.89421859     0.30500
F1155       F  0.76489882  0.96270540  0.84805022    -0.18900
H1156       H  0.72505831  0.91686118  0.87507625     0.18900
H1157       H  0.77569877  0.98137242  0.00823112     0.18900
F1158       F  0.73547634  0.93511612  0.03490006    -0.18800
C1159       C  0.87337840  0.14513749  0.85583374    -0.20300
C1160       C  0.87135022  0.12323881  0.87260936    -0.08300
C1161       C  0.89480864  0.12658805  0.88628255     0.30500
C1162       C  0.91922137  0.15180971  0.88689425    -0.20300
C1163       C  0.92071071  0.17410140  0.87391261    -0.08300
C1164       C  0.89776093  0.17029840  0.85630949     0.30500
F1165       F  0.89845414  0.19109212  0.84178629    -0.18900
H1166       H  0.85576244  0.14309411  0.84447520     0.18900
H1167       H  0.93658379  0.15412638  0.90032103     0.18900
F1168       F  0.89387448  0.10597481  0.90238264    -0.18800
C1169       C  0.78636400  0.09206861  0.13788404    -0.20300
C1170       C  0.77077152  0.06872573  0.16346255    -0.08300
C1171       C  0.75857284  0.04395688  0.13828247     0.30500
C1172       C  0.76184894  0.04261814  0.08879935    -0.20300
C1173       C  0.77766824  0.06584783  0.06322701    -0.08300
C1174       C  0.79009663  0.09071912  0.08825177     0.30500
F1175       F  0.80544992  0.11364472  0.06484869    -0.18900
H1176       H  0.79574910  0.11140635  0.15636539     0.18900
H1177       H  0.75227811  0.02323434  0.07048817     0.18900
F1178       F  0.74286127  0.02091784  0.16121752    -0.18800
C1179       C  0.69944177  0.00724091  0.75293555    -0.20300
C1180       C  0.69285203  0.02550482  0.75115517    -0.08300
C1181       C  0.70297112  0.04663576  0.78601366     0.30500
C1182       C  0.72036073  0.05015912  0.81982677    -0.20300
C1183       C  0.72826969  0.03294377  0.81978304    -0.08300
C1184       C  0.71683809  0.01076024  0.78712518     0.30500
F1185       F  0.72330075  0.99311972  0.78703574    -0.18900
H1186       H  0.69215091  0.99091937  0.72638215     0.18900
H1187       H  0.72885324  0.06738062  0.84456604     0.18900
F1188       F  0.69792693  0.06530062  0.78525847    -0.18800
loop_ 
_geom_bond_atom_site_label_1 
_geom_bond_atom_site_label_2 
_geom_bond_distance 
_geom_bond_site_symmetry_2 
_ccdc_geom_bond_type 
O1            C4   1.266   1_556  A
O1           Cd6   2.499       .  S
C2           O11   1.264       .  A
C2            O7   1.267       .  A
C2         C1183   1.483       .  S
O3            C9   1.266       .  A
O3           Cd6   2.483       .  S
C4           O12   1.264   1_554  A
C4         C1173   1.480       .  S
C5           O10   1.266       .  A
C5            O8   1.264       .  A
C5         C1153   1.480   1_545  S
Cd6          O13   2.460       .  S
Cd6          O12   2.446       .  S
Cd6          O11   2.481       .  S
Cd6           O7   2.480       .  S
Cd6          O10   2.457       .  S
Cd6           O8   2.454       .  S
C9           O13   1.264       .  A
C9         C1160   1.483       .  S
O14          C17   1.269       .  A
O14         Cd19   2.524       .  S
C15          O24   1.264       .  A
C15          O20   1.270       .  A
C15        C1170   1.482       .  S
O16          C22   1.269       .  A
O16         Cd19   2.500       .  S
C17          O25   1.266       .  A
C17        C1140   1.495       .  S
C18          O23   1.267       .  A
C18          O21   1.266       .  A
C18        C1130   1.484       .  S
Cd19         O26   2.395       .  S
Cd19         O25   2.488       .  S
Cd19         O24   2.457       .  S
Cd19         O20   2.479       .  S
Cd19         O23   2.484       .  S
Cd19         O21   2.455       .  S
C22          O26   1.261       .  A
C22        C1120   1.473       .  S
O27          C30   1.265       .  A
O27         Cd32   2.444       .  S
C28          O37   1.264       .  A
C28          O33   1.268       .  A
C28        C1110   1.485   1_655  S
O29          C35   1.268       .  A
O29         Cd32   2.515       .  S
C30          O38   1.270       .  A
C30        C1100   1.487       .  S
C31          O36   1.266       .  A
C31          O34   1.265       .  A
C31        C1133   1.483       .  S
Cd32         O39   2.382       .  S
Cd32         O38   2.498       .  S
Cd32         O37   2.449       .  S
Cd32         O33   2.503       .  S
Cd32         O36   2.478       .  S
Cd32         O34   2.459       .  S
C35          O39   1.259       .  A
C35        C1090   1.471       .  S
O40          C43   1.266   1_556  A
O40         Cd45   2.484       .  S
C41          O50   1.265   1_655  A
C41          O46   1.268       .  A
C41        C1080   1.491   1_655  S
O42          C48   1.267       .  A
O42         Cd45   2.481   1_455  S
C43          O51   1.266   1_554  A
C43        C1103   1.484       .  S
C44          O49   1.266       .  A
C44          O47   1.262       .  A
C44        C1163   1.482       .  S
Cd45         O52   2.457   1_655  S
Cd45         O51   2.476       .  S
Cd45         O50   2.479   1_655  S
Cd45         O46   2.505       .  S
Cd45         O49   2.495       .  S
Cd45         O47   2.448       .  S
C48          O52   1.262       .  A
C48        C1070   1.477       .  S
O53          C56   1.268       .  A
O53         Cd58   2.492       .  S
C54          O63   1.271       .  A
C54          O59   1.264   1_554  A
C54        C1050   1.485       .  S
O55          C61   1.263       .  A
O55         Cd58   2.439       .  S
C56          O64   1.263       .  A
C56        C1060   1.483       .  S
C57          O62   1.263       .  A
C57          O60   1.270       .  A
C57        C1040   1.473       .  S
Cd58         O65   2.438       .  S
Cd58         O64   2.455       .  S
Cd58         O63   2.517   1_556  S
Cd58         O59   2.409       .  S
Cd58         O62   2.402       .  S
Cd58         O60   2.489       .  S
C61          O65   1.267       .  A
C61        C1030   1.469       .  S
O66          C69   1.270       .  A
O66         Cd71   2.515   1_655  S
C67          O76   1.264       .  A
C67          O72   1.269       .  A
C67        C1020   1.485       .  S
O68          C74   1.264       .  A
O68         Cd71   2.438       .  S
C69          O77   1.265   1_655  A
C69        C1053   1.487       .  S
C70          O75   1.269   1_655  A
C70          O73   1.264       .  A
C70        C1010   1.479       .  S
Cd71         O78   2.481       .  S
Cd71         O77   2.425       .  S
Cd71         O76   2.435       .  S
Cd71         O72   2.499       .  S
Cd71         O75   2.507       .  S
Cd71         O73   2.417   1_455  S
C74          O78   1.266       .  A
C74        C1000   1.478       .  S
O79          C82   1.270       .  A
O79         Cd84   2.519       .  S
C80          O89   1.268       .  A
C80          O85   1.266       .  A
C80         C980   1.485       .  S
O81          C87   1.264       .  A
O81         Cd84   2.406       .  S
C82          O90   1.264       .  A
C82         C990   1.491       .  S
C83          O88   1.262       .  A
C83          O86   1.265       .  A
C83         C970   1.474       .  S
Cd84         O91   2.514       .  S
Cd84         O90   2.457       .  S
Cd84         O89   2.471       .  S
Cd84         O85   2.459       .  S
Cd84         O88   2.471       .  S
Cd84         O86   2.446       .  S
C87          O91   1.269       .  A
C87        C1013   1.479       .  S
O92          C95   1.270       .  A
O92         Cd97   2.479       .  S
C93         O102   1.267       .  A
C93          O98   1.269   1_554  A
C93         C983   1.476       .  S
O94         C100   1.266       .  A
O94         Cd97   2.493       .  S
C95         O103   1.263       .  A
C95         C960   1.479       .  S
C96         O101   1.271       .  A
C96          O99   1.262       .  A
C96        C1043   1.473       .  S
Cd97        O104   2.425   1_556  S
Cd97        O103   2.423       .  S
Cd97        O102   2.450   1_556  S
Cd97         O98   2.476       .  S
Cd97        O101   2.504       .  S
Cd97         O99   2.390       .  S
C100        O104   1.263   1_556  A
C100        C950   1.474       .  S
O105        C108   1.271       .  A
O105       Cd110   2.548   1_554  S
C106        O115   1.266       .  A
C106        O111   1.266       .  A
C106        C930   1.486       .  S
O107        C113   1.265       .  A
O107       Cd110   2.462       .  S
C108        O116   1.262       .  A
C108        C940   1.494       .  S
C109        O114   1.262       .  A
C109        O112   1.268       .  A
C109        C923   1.479       .  S
Cd110       O117   2.461       .  S
Cd110       O116   2.443   1_556  S
Cd110       O115   2.475       .  S
Cd110       O111   2.479       .  S
Cd110       O114   2.393       .  S
Cd110       O112   2.525       .  S
C113        O117   1.263       .  A
C113       C1150   1.471       .  S
O118        C121   1.268       .  A
O118       Cd123   2.506       .  S
C119        O128   1.264       .  A
C119        O124   1.268       .  A
C119        C933   1.481       .  S
O120        C126   1.270       .  A
O120       Cd123   2.524       .  S
C121        O129   1.262       .  A
C121       C1143   1.487       .  S
C122        O127   1.268       .  A
C122        O125   1.265   1_545  A
C122        C903   1.480       .  S
Cd123       O130   2.430       .  S
Cd123       O129   2.473       .  S
Cd123       O128   2.472       .  S
Cd123       O124   2.508       .  S
Cd123       O127   2.491   1_565  S
Cd123       O125   2.456       .  S
C126        O130   1.264       .  A
C126        C910   1.489       .  S
O131        C134   1.270       .  A
O131       Cd136   2.565       .  S
C132        O141   1.262       .  A
C132        O137   1.270       .  A
C132        C993   1.493       .  S
O133        C139   1.264       .  A
O133       Cd136   2.430       .  S
C134        O142   1.262       .  A
C134        C890   1.498       .  S
C135        O140   1.262       .  A
C135        O138   1.272       .  A
C135        C913   1.487       .  S
Cd136       O143   2.437       .  S
Cd136       O142   2.454       .  S
Cd136       O141   2.469       .  S
Cd136       O137   2.527       .  S
Cd136       O140   2.407       .  S
Cd136       O138   2.529       .  S
C139        O143   1.265       .  A
C139        C880   1.467       .  S
O144        C147   1.269       .  A
O144       Cd149   2.455   1_554  S
C145        O154   1.265       .  A
C145        O150   1.269       .  A
C145        C893   1.494       .  S
O146        C152   1.267       .  A
O146       Cd149   2.459       .  S
C147        O155   1.264       .  A
C147        C870   1.483       .  S
C148        O153   1.267       .  A
C148        O151   1.264       .  A
C148        C920   1.474       .  S
Cd149       O156   2.473       .  S
Cd149       O155   2.467   1_556  S
Cd149       O154   2.459       .  S
Cd149       O150   2.540       .  S
Cd149       O153   2.492       .  S
Cd149       O151   2.397       .  S
C152        O156   1.263       .  A
C152        C953   1.483       .  S
O157        C160   1.265       .  A
O157       Cd162   2.413       .  S
C158        O167   1.263       .  A
C158        O163   1.268       .  A
C158        C873   1.485       .  S
O159        C165   1.268       .  A
O159       Cd162   2.498       .  S
C160        O168   1.271       .  A
C160        C860   1.475       .  S
C161        O166   1.266       .  A
C161        O164   1.266       .  A
C161        C850   1.476       .  S
Cd162       O169   2.401       .  S
Cd162       O168   2.471       .  S
Cd162       O167   2.410       .  S
Cd162       O163   2.525       .  S
Cd162       O166   2.463       .  S
Cd162       O164   2.436       .  S
C165        O169   1.262       .  A
C165        C973   1.470       .  S
O170        C173   1.270       .  A
O170       Cd175   2.464       .  S
C171        O180   1.272       .  A
C171        O176   1.265       .  A
C171        C863   1.474       .  S
O172        C178   1.272       .  A
O172       Cd175   2.484       .  S
C173        O181   1.268       .  A
C173        C963   1.482       .  S
C174        O179   1.275       .  A
C174        O177   1.264       .  A
C174        C883   1.466       .  S
Cd175       O182   2.389       .  S
Cd175       O181   2.440       .  S
Cd175       O180   2.452       .  S
Cd175       O176   2.403       .  S
Cd175       O179   2.484       .  S
Cd175       O177   2.342       .  S
C178        O182   1.265       .  A
C178        C840   1.478       .  S
O183        C186   1.269       .  A
O183       Cd188   2.492       .  S
C184        O193   1.266       .  A
C184        O189   1.270       .  A
C184        C820   1.486       .  S
O185        C191   1.266       .  A
O185       Cd188   2.476       .  S
C186        O194   1.264       .  A
C186        C833   1.482       .  S
C187        O192   1.266       .  A
C187        O190   1.263       .  A
C187        C853   1.476       .  S
Cd188       O195   2.418       .  S
Cd188       O194   2.430       .  S
Cd188       O193   2.451       .  S
Cd188       O189   2.483       .  S
Cd188       O192   2.475       .  S
Cd188       O190   2.422       .  S
C191        O195   1.261       .  A
C191        C813   1.474       .  S
O196        C199   1.268       .  A
O196       Cd201   2.531       .  S
C197        O206   1.267       .  A
C197        O202   1.267       .  A
C197        C823   1.486       .  S
O198        C204   1.266       .  A
O198       Cd201   2.464       .  S
C199        O207   1.263       .  A
C199        C803   1.494       .  S
C200        O205   1.265       .  A
C200        O203   1.265       .  A
C200        C843   1.479       .  S
Cd201       O208   2.439       .  S
Cd201       O207   2.471       .  S
Cd201       O206   2.474       .  S
Cd201       O202   2.475       .  S
Cd201       O205   2.483       .  S
Cd201       O203   2.434       .  S
C204        O208   1.261       .  A
C204        C793   1.476       .  S
O209        C212   1.268   1_556  A
O209       Cd214   2.512       .  S
C210        O219   1.267       .  A
C210        O215   1.266       .  A
C210        C770   1.481       .  S
O211        C217   1.265       .  A
O211       Cd214   2.469       .  S
C212        O220   1.262       .  A
C212        C780   1.486       .  S
C213        O218   1.267       .  A
C213        O216   1.265       .  A
C213        C760   1.476       .  S
Cd214       O221   2.435       .  S
Cd214       O220   2.448   1_556  S
Cd214       O219   2.455       .  S
Cd214       O215   2.473       .  S
Cd214       O218   2.473       .  S
Cd214       O216   2.418       .  S
C217        O221   1.262       .  A
C217       C1033   1.475       .  S
O222        C225   1.268       .  A
O222       Cd227   2.479       .  S
C223        O232   1.265       .  A
C223        O228   1.269       .  A
C223        C773   1.482       .  S
O224        C230   1.261       .  A
O224       Cd227   2.374       .  S
C225        O233   1.264       .  A
C225       C1023   1.484       .  S
C226        O231   1.267       .  A
C226        O229   1.264       .  A
C226        C750   1.474       .  S
Cd227       O234   2.514       .  S
Cd227       O233   2.452       .  S
Cd227       O232   2.450       .  S
Cd227       O228   2.472       .  S
Cd227       O231   2.453       .  S
Cd227       O229   2.423       .  S
C230        O234   1.268       .  A
C230        C740   1.471       .  S
O235        C238   1.269       .  A
O235       Cd240   2.509   1_554  S
C236        O245   1.272       .  A
C236        O241   1.264       .  A
C236        C720   1.483       .  S
O237        C243   1.268   1_554  A
O237       Cd240   2.481   1_554  S
C238        O246   1.265       .  A
C238        C730   1.491       .  S
C239        O244   1.271   1_556  A
C239        O242   1.264       .  A
C239        C710   1.465   1_565  S
Cd240       O247   2.413       .  S
Cd240       O246   2.481   1_556  S
Cd240       O245   2.503       .  S
Cd240       O241   2.449       .  S
Cd240       O244   2.499   1_556  S
Cd240       O242   2.363       .  S
C243        O247   1.263       .  A
C243        C763   1.476   1_556  S
O248        C251   1.268       .  A
O248       Cd253   2.502       .  S
C249        O258   1.271       .  A
C249        O254   1.264       .  A
C249        C723   1.486       .  S
O250        C256   1.263       .  A
O250       Cd253   2.463       .  S
C251        O259   1.265       .  A
C251        C700   1.486       .  S
C252        O257   1.268       .  A
C252        O255   1.262       .  A
C252        C690   1.473       .  S
Cd253       O260   2.451       .  S
Cd253       O259   2.456       .  S
Cd253       O258   2.512       .  S
Cd253       O254   2.424       .  S
Cd253       O257   2.503       .  S
Cd253       O255   2.402       .  S
C256        O260   1.264       .  A
C256        C753   1.475       .  S
O261        C264   1.269       .  A
O261       Cd266   2.514   1_565  S
C262        O271   1.265       .  A
C262        O267   1.269       .  A
C262       C1180   1.485       .  S
O263        C269   1.266       .  A
O263       Cd266   2.465       .  S
C264        O272   1.266   1_565  A
C264        C680   1.485       .  S
C265        O270   1.268       .  A
C265        O268   1.264       .  A
C265        C670   1.478       .  S
Cd266       O273   2.473       .  S
Cd266       O272   2.440       .  S
Cd266       O271   2.429       .  S
Cd266       O267   2.490       .  S
Cd266       O270   2.498       .  S
Cd266       O268   2.437       .  S
C269        O273   1.265       .  A
C269        C900   1.481       .  S
O274        C277   1.269       .  A
O274       Cd279   2.534       .  S
C275        O284   1.267       .  A
C275        O280   1.263       .  A
C275        C683   1.490       .  S
O276        C282   1.262       .  A
O276       Cd279   2.444       .  S
C277        O285   1.261       .  A
C277        C943   1.490       .  S
C278        O283   1.266       .  A
C278        O281   1.269       .  A
C278        C660   1.480       .  S
Cd279       O286   2.455       .  S
Cd279       O285   2.466       .  S
Cd279       O284   2.529       .  S
Cd279       O280   2.444       .  S
Cd279       O283   2.430       .  S
Cd279       O281   2.498       .  S
C282        O286   1.264       .  A
C282       C1123   1.473   1_565  S
O287        C290   1.271       .  A
O287       Cd292   2.505       .  S
C288        O297   1.265       .  A
C288        O293   1.270       .  A
C288        C733   1.492       .  S
O289        C295   1.270       .  A
O289       Cd292   2.515       .  S
C290        O298   1.267       .  A
C290        C650   1.488   1_565  S
C291        O296   1.264       .  A
C291        O294   1.266       .  A
C291        C643   1.480       .  S
Cd292       O299   2.427       .  S
Cd292       O298   2.453       .  S
Cd292       O297   2.457       .  S
Cd292       O293   2.506       .  S
Cd292       O296   2.443       .  S
Cd292       O294   2.471       .  S
C295        O299   1.265       .  A
C295        C663   1.480       .  S
O300        C303   1.270       .  A
O300       Cd305   2.502       .  S
C301        O310   1.271       .  A
C301        O306   1.265       .  A
C301        C653   1.490       .  S
O302        C308   1.262       .  A
O302       Cd305   2.431       .  S
C303        O311   1.263       .  A
C303        C630   1.482       .  S
C304        O309   1.266   1_565  A
C304        O307   1.263   1_565  A
C304        C693   1.476       .  S
Cd305       O312   2.499       .  S
Cd305       O311   2.437       .  S
Cd305       O310   2.498       .  S
Cd305       O306   2.444       .  S
Cd305       O309   2.444       .  S
Cd305       O307   2.459       .  S
C308        O312   1.267       .  A
C308        C673   1.478       .  S
O313        C316   1.267   1_556  A
O313       Cd318   2.433       .  S
C314        O323   1.263       .  A
C314        O319   1.270       .  A
C314        C633   1.479       .  S
O315        C321   1.264       .  A
O315       Cd318   2.433       .  S
C316        O324   1.267       .  A
C316        C620   1.482       .  S
C317        O322   1.263       .  A
C317        O320   1.266       .  A
C317        C610   1.467       .  S
Cd318       O325   2.482       .  S
Cd318       O324   2.473   1_556  S
Cd318       O323   2.443       .  S
Cd318       O319   2.499       .  S
Cd318       O322   2.409       .  S
Cd318       O320   2.472       .  S
C321        O325   1.262       .  A
C321        C713   1.474       .  S
O326        C329   1.269       .  A
O326       Cd331   2.453       .  S
C327        O336   1.267       .  A
C327        O332   1.267       .  A
C327        C623   1.482       .  S
O328        C334   1.264       .  A
O328       Cd331   2.465   1_565  S
C329        O337   1.265       .  A
C329        C703   1.480       .  S
C330        O335   1.271       .  A
C330        O333   1.261       .  A
C330        C603   1.476       .  S
Cd331       O338   2.461   1_545  S
Cd331       O337   2.428       .  S
Cd331       O336   2.457       .  S
Cd331       O332   2.486       .  S
Cd331       O335   2.503       .  S
Cd331       O333   2.366       .  S
C334        O338   1.268       .  A
C334        C640   1.485       .  S
O339        C342   1.270       .  A
O339       Cd344   2.533       .  S
C340        O349   1.269       .  A
C340        O345   1.267       .  A
C340        C580   1.490       .  S
O341        C347   1.266       .  A
O341       Cd344   2.466       .  S
C342        O350   1.263       .  A
C342        C590   1.492       .  S
C343        O348   1.263       .  A
C343        O346   1.268       .  A
C343        C600   1.477       .  S
Cd344       O351   2.457       .  S
Cd344       O350   2.458       .  S
Cd344       O349   2.498       .  S
Cd344       O345   2.444       .  S
Cd344       O348   2.397       .  S
Cd344       O346   2.500       .  S
C347        O351   1.261       .  A
C347        C810   1.470       .  S
O352        C355   1.268   1_556  A
O352       Cd357   2.525       .  S
C353        O362   1.267       .  A
C353        O358   1.267       .  A
C353        C800   1.492       .  S
O354        C360   1.264       .  A
O354       Cd357   2.458       .  S
C355        O363   1.265       .  A
C355        C583   1.491       .  S
C356        O361   1.267       .  A
C356        O359   1.265       .  A
C356        C613   1.474       .  S
Cd357       O364   2.458       .  S
Cd357       O363   2.463   1_556  S
Cd357       O362   2.496       .  S
Cd357       O358   2.474       .  S
Cd357       O361   2.495       .  S
Cd357       O359   2.428       .  S
C360        O364   1.268       .  A
C360        C570   1.482       .  S
O365        C368   1.262       .  A
O365       Cd370   2.430   1_554  S
C366        O375   1.271       .  A
C366        O371   1.263       .  A
C366        C550   1.487       .  S
O367        C373   1.263       .  A
O367       Cd370   2.419       .  S
C368        O376   1.270   1_554  A
C368        C560   1.482       .  S
C369        O374   1.265       .  A
C369        O372   1.264   1_556  A
C369       C1073   1.476       .  S
Cd370       O377   2.496       .  S
Cd370       O376   2.503       .  S
Cd370       O375   2.516       .  S
Cd370       O371   2.414       .  S
Cd370       O374   2.473       .  S
Cd370       O372   2.448   1_556  S
C373        O377   1.266       .  A
C373        C543   1.478       .  S
O378        C381   1.272       .  A
O378       Cd383   2.475       .  S
C379        O388   1.267       .  A
C379        O384   1.271       .  A
C379        C553   1.486       .  S
O380        C386   1.264       .  A
O380       Cd383   2.479       .  S
C381        O389   1.263       .  A
C381       C1113   1.480       .  S
C382        O387   1.270       .  A
C382        O385   1.263       .  A
C382        C530   1.465       .  S
Cd383       O390   2.453       .  S
Cd383       O389   2.418       .  S
Cd383       O388   2.435       .  S
Cd383       O384   2.514       .  S
Cd383       O387   2.485       .  S
Cd383       O385   2.387       .  S
C386        O390   1.265       .  A
C386        C523   1.479   1_455  S
O391        C394   1.265       .  A
O391       Cd396   2.488       .  S
C392        O401   1.270       .  A
C392        O397   1.266       .  A
C392        C510   1.486       .  S
O393        C399   1.268       .  A
O393       Cd396   2.468       .  S
C394        O402   1.269       .  A
C394        C593   1.489       .  S
C395        O400   1.265       .  A
C395        O398   1.267       .  A
C395        C533   1.474       .  S
Cd396       O403   2.441       .  S
Cd396       O402   2.511       .  S
Cd396       O401   2.507       .  S
Cd396       O397   2.445       .  S
Cd396       O400   2.430       .  S
Cd396       O398   2.476       .  S
C399        O403   1.262       .  A
C399        C790   1.474       .  S
O404        C407   1.272       .  A
O404       Cd409   2.516       .  S
C405        O414   1.264       .  A
C405        O410   1.271   1_554  A
C405        C830   1.479       .  S
O406        C412   1.265       .  A
O406       Cd409   2.486       .  S
C407        O415   1.266       .  A
C407        C513   1.491       .  S
C408        O413   1.270       .  A
C408        O411   1.265       .  A
C408        C540   1.465       .  S
Cd409       O416   2.433       .  S
Cd409       O415   2.432       .  S
Cd409       O414   2.425   1_556  S
Cd409       O410   2.462       .  S
Cd409       O413   2.474       .  S
Cd409       O411   2.403       .  S
C412        O416   1.262       .  A
C412        C573   1.477       .  S
O417        C420   1.269       .  A
O417       Cd422   2.487   1_455  S
C418        O427   1.266       .  A
C418        O423   1.270       .  A
C418        C500   1.485       .  S
O419        C425   1.266       .  A
O419       Cd422   2.486       .  S
C420        O428   1.263   1_455  A
C420       C1083   1.485       .  S
C421        O426   1.269       .  A
C421        O424   1.265       .  A
C421        C490   1.479       .  S
Cd422       O429   2.432       .  S
Cd422       O428   2.442       .  S
Cd422       O427   2.431   1_655  S
Cd422       O423   2.521   1_655  S
Cd422       O426   2.494       .  S
Cd422       O424   2.409       .  S
C425        O429   1.263       .  A
C425        C520   1.476       .  S
O430        C433   1.263       .  A
O430       Cd435   2.454       .  S
C431        O440   1.270       .  A
C431        O436   1.267       .  A
C431        C503   1.485       .  S
O432        C438   1.263       .  A
O432       Cd435   2.396       .  S
C433        O441   1.268       .  A
C433        C563   1.481       .  S
C434        O439   1.263       .  A
C434        O437   1.267       .  A
C434       C1093   1.474       .  S
Cd435       O442   2.496       .  S
Cd435       O441   2.496       .  S
Cd435       O440   2.488       .  S
Cd435       O436   2.423       .  S
Cd435       O439   2.459       .  S
Cd435       O437   2.457       .  S
C438        O442   1.268       .  A
C438        C483   1.472       .  S
O443        C446   1.270       .  A
O443       Cd448   2.539       .  S
C444        O453   1.266       .  A
C444        O449   1.268       .  A
C444        C783   1.484       .  S
O445        C451   1.264       .  A
O445       Cd448   2.479       .  S
C446        O454   1.264       .  A
C446        C470   1.492       .  S
C447        O452   1.267       .  A
C447        O450   1.265       .  A
C447        C480   1.477       .  S
Cd448       O455   2.466       .  S
Cd448       O454   2.428       .  S
Cd448       O453   2.458       .  S
Cd448       O449   2.463       .  S
Cd448       O452   2.489       .  S
Cd448       O450   2.440       .  S
C451        O455   1.264       .  A
C451       C1003   1.482       .  S
O456        C459   1.262       .  A
O456       Cd461   2.439       .  S
C457        O466   1.271       .  A
C457        O462   1.265       .  A
C457        C473   1.487       .  S
O458        C464   1.267       .  A
O458       Cd461   2.433   1_455  S
C459        O467   1.270       .  A
C459       C1063   1.484       .  S
C460        O465   1.261       .  A
C460        O463   1.270       .  A
C460        C493   1.477       .  S
Cd461       O468   2.461   1_655  S
Cd461       O467   2.515       .  S
Cd461       O466   2.519       .  S
Cd461       O462   2.428       .  S
Cd461       O465   2.391       .  S
Cd461       O463   2.509       .  S
C464        O468   1.264       .  A
C464        C743   1.471       .  S
C469        C470   1.404       .  A
C469        C474   1.393       .  A
C469        H476   1.081       .  S
C470        C471   1.411   1_455  A
C471        C472   1.410       .  A
C471        F478   1.357       .  S
C472        C473   1.408       .  A
C472        H477   1.083       .  S
C473        C474   1.408   1_655  A
C474        F475   1.358       .  S
C479        C480   1.403       .  A
C479        C484   1.393       .  A
C479        H486   1.083       .  S
C480        C481   1.409       .  A
C481        C482   1.402       .  A
C481        F488   1.357       .  S
C482        C483   1.403       .  A
C482        H487   1.083       .  S
C483        C484   1.405       .  A
C484        F485   1.358       .  S
C489        C490   1.403       .  A
C489        C494   1.391       .  A
C489        H496   1.083       .  S
C490        C491   1.409       .  A
C491        C492   1.403       .  A
C491        F498   1.357       .  S
C492        C493   1.405       .  A
C492        H497   1.083       .  S
C493        C494   1.407       .  A
C494        F495   1.358       .  S
C499        C500   1.407       .  A
C499        C504   1.408       .  A
C499        H506   1.083       .  S
C500        C501   1.405       .  A
C501        C502   1.392       .  A
C501        F508   1.351       .  S
C502        C503   1.403       .  A
C502        H507   1.083       .  S
C503        C504   1.411       .  A
C504        F505   1.357       .  S
C509        C510   1.404       .  A
C509        C514   1.396       .  A
C509        H516   1.084       .  S
C510        C511   1.408       .  A
C511        C512   1.408       .  A
C511        F518   1.357       .  S
C512        C513   1.409       .  A
C512        H517   1.083       .  S
C513        C514   1.411       .  A
C514        F515   1.357       .  S
C519        C520   1.404       .  A
C519        C524   1.400       .  A
C519        H526   1.084       .  S
C520        C521   1.409       .  A
C521        C522   1.400       .  A
C521        F528   1.358       .  S
C522        C523   1.404       .  A
C522        H527   1.085       .  S
C523        C524   1.411       .  A
C524        F525   1.358       .  S
C529        C530   1.401       .  A
C529        C534   1.392       .  A
C529        H536   1.084       .  S
C530        C531   1.403       .  A
C531        C532   1.401       .  A
C531        F538   1.358       .  S
C532        C533   1.407       .  A
C532        H537   1.083       .  S
C533        C534   1.405       .  A
C534        F535   1.357       .  S
C539        C540   1.398       .  A
C539        C544   1.397       .  A
C539        H546   1.114       .  S
C540        C541   1.404       .  A
C541        C542   1.391       .  A
C541        F548   1.358   1_556  S
C542        C543   1.404       .  A
C542        H547   1.093   1_556  S
C543        C544   1.412       .  A
C544        F545   1.356       .  S
C549        C550   1.408       .  A
C549        C554   1.408       .  A
C549        H556   1.083       .  S
C550        C551   1.409       .  A
C551        C552   1.393       .  A
C551        F558   1.358       .  S
C552        C553   1.403       .  A
C552        H557   1.078       .  S
C553        C554   1.410       .  A
C554        F555   1.357       .  S
C559        C560   1.403       .  A
C559        C564   1.400       .  A
C559        H566   1.083       .  S
C560        C561   1.411       .  A
C561        C562   1.399       .  A
C561        F568   1.358       .  S
C562        C563   1.403       .  A
C562        H567   1.083       .  S
C563        C564   1.410       .  A
C564        F565   1.357       .  S
C569        C570   1.405       .  A
C569        C574   1.400       .  A
C569        H576   1.081   1_556  S
C570        C571   1.411       .  A
C571        C572   1.400       .  A
C571        F578   1.358       .  S
C572        C573   1.404       .  A
C572        H577   1.081       .  S
C573        C574   1.409       .  A
C574        F575   1.358   1_556  S
C579        C580   1.405       .  A
C579        C584   1.397       .  A
C579        H586   1.084       .  S
C580        C581   1.412       .  A
C581        C582   1.408       .  A
C581        F588   1.358       .  S
C582        C583   1.408       .  A
C582        H587   1.085       .  S
C583        C584   1.407       .  A
C584        F585   1.355       .  S
C589        C590   1.408       .  A
C589        C594   1.402       .  A
C589        H596   1.083       .  S
C590        C591   1.408       .  A
C591        C592   1.407       .  A
C591        F598   1.357       .  S
C592        C593   1.408       .  A
C592        H597   1.083       .  S
C593        C594   1.406       .  A
C594        F595   1.357       .  S
C599        C600   1.402       .  A
C599        C604   1.388       .  A
C599        H606   1.082       .  S
C600        C601   1.409       .  A
C601        C602   1.404       .  A
C601        F608   1.357       .  S
C602        C603   1.406       .  A
C602        H607   1.082       .  S
C603        C604   1.408       .  A
C604        F605   1.358       .  S
C609        C610   1.403       .  A
C609        C614   1.400       .  A
C609        H616   1.084   1_556  S
C610        C611   1.403       .  A
C611        C612   1.393       .  A
C611        F618   1.358       .  S
C612        C613   1.403       .  A
C612        H617   1.083       .  S
C613        C614   1.408       .  A
C614        F615   1.357   1_556  S
C619        C620   1.404       .  A
C619        C624   1.393       .  A
C619        H626   1.082       .  S
C620        C621   1.410       .  A
C621        C622   1.405       .  A
C621        F628   1.358       .  S
C622        C623   1.407       .  A
C622        H627   1.085       .  S
C623        C624   1.404       .  A
C624        F625   1.354       .  S
C629        C630   1.404       .  A
C629        C634   1.401       .  A
C629        H636   1.083       .  S
C630        C631   1.411       .  A
C631        C632   1.399       .  A
C631        F638   1.357       .  S
C632        C633   1.401       .  A
C632        H637   1.084       .  S
C633        C634   1.409       .  A
C634        F635   1.358       .  S
C639        C640   1.404       .  A
C639        C644   1.399       .  A
C639        H646   1.085       .  S
C640        C641   1.413       .  A
C641        C642   1.401       .  A
C641        F648   1.358       .  S
C642        C643   1.404       .  A
C642        H647   1.085       .  S
C643        C644   1.411       .  A
C644        F645   1.358       .  S
C649        C650   1.405   1_565  A
C649        C654   1.399   1_565  A
C649        H656   1.082       .  S
C650        C651   1.408       .  A
C651        C652   1.405       .  A
C651        F658   1.357       .  S
C652        C653   1.407       .  A
C652        H657   1.084       .  S
C653        C654   1.412       .  A
C654        F655   1.358       .  S
C659        C660   1.403       .  A
C659        C664   1.396       .  A
C659        H666   1.083       .  S
C660        C661   1.409       .  A
C661        C662   1.406       .  A
C661        F668   1.358       .  S
C662        C663   1.406       .  A
C662        H667   1.082       .  S
C663        C664   1.405       .  A
C664        F665   1.358       .  S
C669        C670   1.404       .  A
C669        C674   1.396       .  A
C669        H676   1.084       .  S
C670        C671   1.408       .  A
C671        C672   1.402       .  A
C671        F678   1.357       .  S
C672        C673   1.405       .  A
C672        H677   1.083       .  S
C673        C674   1.407       .  A
C674        F675   1.358       .  S
C679        C680   1.401       .  A
C679        C684   1.395       .  A
C679        H686   1.076       .  S
C680        C681   1.409       .  A
C681        C682   1.409       .  A
C681        F688   1.357       .  S
C682        C683   1.410       .  A
C682        H687   1.083       .  S
C683        C684   1.409       .  A
C684        F685   1.357       .  S
C689        C690   1.402       .  A
C689        C694   1.400       .  A
C689        H696   1.083       .  S
C690        C691   1.407       .  A
C691        C692   1.393       .  A
C691        F698   1.358       .  S
C692        C693   1.403       .  A
C692        H697   1.084       .  S
C693        C694   1.412       .  A
C694        F695   1.357       .  S
C699        C700   1.406       .  A
C699        C704   1.397       .  A
C699        H706   1.077       .  S
C700        C701   1.408       .  A
C701        C702   1.400   1_565  A
C701        F708   1.357       .  S
C702        C703   1.408       .  A
C702        H707   1.083       .  S
C703        C704   1.405   1_545  A
C704        F705   1.358       .  S
C709        C710   1.401       .  A
C709        C714   1.401       .  A
C709        H716   1.083   1_556  S
C710        C711   1.404       .  A
C711        C712   1.390       .  A
C711        F718   1.358       .  S
C712        C713   1.402       .  A
C712        H717   1.083       .  S
C713        C714   1.411       .  A
C714        F715   1.357   1_556  S
C719        C720   1.409       .  A
C719        C724   1.403       .  A
C719        H726   1.083       .  S
C720        C721   1.403       .  A
C721        C722   1.398       .  A
C721        F728   1.357       .  S
C722        C723   1.409       .  A
C722        H727   1.083       .  S
C723        C724   1.407       .  A
C724        F725   1.358       .  S
C729        C730   1.407       .  A
C729        C734   1.404       .  A
C729        H736   1.082       .  S
C730        C731   1.407       .  A
C731        C732   1.403       .  A
C731        F738   1.357       .  S
C732        C733   1.409       .  A
C732        H737   1.083       .  S
C733        C734   1.409       .  A
C734        F735   1.357       .  S
C739        C740   1.404       .  A
C739        C744   1.391       .  A
C739        H746   1.084       .  S
C740        C741   1.405       .  A
C741        C742   1.400       .  A
C741        F748   1.358       .  S
C742        C743   1.407       .  A
C742        H747   1.084       .  S
C743        C744   1.403       .  A
C744        F745   1.358       .  S
C749        C750   1.404       .  A
C749        C754   1.396       .  A
C749        H756   1.084       .  S
C750        C751   1.407       .  A
C751        C752   1.394       .  A
C751        F758   1.358       .  S
C752        C753   1.403       .  A
C752        H757   1.084       .  S
C753        C754   1.408       .  A
C754        F755   1.357       .  S
C759        C760   1.403   1_554  A
C759        C764   1.391       .  A
C759        H766   1.084       .  S
C760        C761   1.408   1_556  A
C761        C762   1.400       .  A
C761        F768   1.357   1_554  S
C762        C763   1.405       .  A
C762        H767   1.083       .  S
C763        C764   1.407       .  A
C764        F765   1.358       .  S
C769        C770   1.405       .  A
C769        C774   1.397       .  A
C769        H776   1.081       .  S
C770        C771   1.408       .  A
C771        C772   1.401       .  A
C771        F778   1.358       .  S
C772        C773   1.408       .  A
C772        H777   1.081       .  S
C773        C774   1.407       .  A
C774        F775   1.357       .  S
C779        C780   1.406       .  A
C779        C784   1.397       .  A
C779        H786   1.080       .  S
C780        C781   1.407       .  A
C781        C782   1.403       .  A
C781        F788   1.357       .  S
C782        C783   1.408       .  A
C782        H787   1.083       .  S
C783        C784   1.407       .  A
C784        F785   1.357       .  S
C789        C790   1.402       .  A
C789        C794   1.397       .  A
C789        H796   1.083       .  S
C790        C791   1.410       .  A
C791        C792   1.395       .  A
C791        F798   1.358       .  S
C792        C793   1.402       .  A
C792        H797   1.083       .  S
C793        C794   1.410       .  A
C794        F795   1.358       .  S
C799        C800   1.406       .  A
C799        C804   1.400       .  A
C799        H806   1.083       .  S
C800        C801   1.412       .  A
C801        C802   1.407       .  A
C801        F808   1.357       .  S
C802        C803   1.406       .  A
C802        H807   1.083       .  S
C803        C804   1.409       .  A
C804        F805   1.354       .  S
C809        C810   1.405       .  A
C809        C814   1.397       .  A
C809        H816   1.085       .  S
C810        C811   1.402       .  A
C811        C812   1.395       .  A
C811        F818   1.357       .  S
C812        C813   1.407       .  A
C812        H817   1.084       .  S
C813        C814   1.407       .  A
C814        F815   1.358       .  S
C819        C820   1.406       .  A
C819        C824   1.401       .  A
C819        H826   1.084       .  S
C820        C821   1.410       .  A
C821        C822   1.400       .  A
C821        F828   1.357       .  S
C822        C823   1.404       .  A
C822        H827   1.084       .  S
C823        C824   1.410       .  A
C824        F825   1.357       .  S
C829        C830   1.408       .  A
C829        C834   1.400       .  A
C829        H836   1.085       .  S
C830        C831   1.406       .  A
C831        C832   1.395       .  A
C831        F838   1.357       .  S
C832        C833   1.406       .  A
C832        H837   1.083       .  S
C833        C834   1.407       .  A
C834        F835   1.358       .  S
C839        C840   1.406       .  A
C839        C844   1.402       .  A
C839        H846   1.083       .  S
C840        C841   1.408       .  A
C841        C842   1.392       .  A
C841        F848   1.358       .  S
C842        C843   1.402       .  A
C842        H847   1.083       .  S
C843        C844   1.409       .  A
C844        F845   1.357       .  S
C849        C850   1.406       .  A
C849        C854   1.399       .  A
C849        H856   1.083       .  S
C850        C851   1.406       .  A
C851        C852   1.393       .  A
C851        F858   1.357       .  S
C852        C853   1.404       .  A
C852        H857   1.083       .  S
C853        C854   1.407       .  A
C854        F855   1.357       .  S
C859        C860   1.407       .  A
C859        C864   1.395       .  A
C859        H866   1.084       .  S
C860        C861   1.405       .  A
C861        C862   1.396       .  A
C861        F868   1.357       .  S
C862        C863   1.407       .  A
C862        H867   1.083       .  S
C863        C864   1.403       .  A
C864        F865   1.357       .  S
C869        C870   1.402       .  A
C869        C874   1.393       .  A
C869        H876   1.082       .  S
C870        C871   1.413       .  A
C871        C872   1.407       .  A
C871        F878   1.358       .  S
C872        C873   1.406       .  A
C872        H877   1.083       .  S
C873        C874   1.406       .  A
C874        F875   1.356       .  S
C879        C880   1.406       .  A
C879        C884   1.396       .  A
C879        H886   1.081       .  S
C880        C881   1.403       .  A
C881        C882   1.391       .  A
C881        F888   1.358       .  S
C882        C883   1.406       .  A
C882        H887   1.084       .  S
C883        C884   1.401       .  A
C884        F885   1.357       .  S
C889        C890   1.408       .  A
C889        C894   1.399       .  A
C889        H896   1.083       .  S
C890        C891   1.412       .  A
C891        C892   1.411       .  A
C891        F898   1.357       .  S
C892        C893   1.409       .  A
C892        H897   1.084       .  S
C893        C894   1.407       .  A
C894        F895   1.356       .  S
C899        C900   1.408       .  A
C899        C904   1.401       .  A
C899        H906   1.086       .  S
C900        C901   1.406       .  A
C901        C902   1.400       .  A
C901        F908   1.357       .  S
C902        C903   1.405       .  A
C902        H907   1.086       .  S
C903        C904   1.406       .  A
C904        F905   1.356       .  S
C909        C910   1.405       .  A
C909        C914   1.394       .  A
C909        H916   1.083       .  S
C910        C911   1.410       .  A
C911        C912   1.407       .  A
C911        F918   1.356       .  S
C912        C913   1.407       .  A
C912        H917   1.082       .  S
C913        C914   1.409       .  A
C914        F915   1.358       .  S
C919        C920   1.400   1_554  A
C919        C924   1.388       .  A
C919        H926   1.082       .  S
C920        C921   1.408       .  A
C921        C922   1.406       .  A
C921        F928   1.358       .  S
C922        C923   1.409       .  A
C922        H927   1.082       .  S
C923        C924   1.406   1_556  A
C924        F925   1.357       .  S
C929        C930   1.408       .  A
C929        C934   1.401       .  A
C929        H936   1.083       .  S
C930        C931   1.408       .  A
C931        C932   1.403       .  A
C931        F938   1.357       .  S
C932        C933   1.405       .  A
C932        H937   1.081       .  S
C933        C934   1.405       .  A
C934        F935   1.358       .  S
C939        C940   1.409       .  A
C939        C944   1.400       .  A
C939        H946   1.082       .  S
C940        C941   1.409       .  A
C941        C942   1.408       .  A
C941        F948   1.356       .  S
C942        C943   1.407       .  A
C942        H947   1.081       .  S
C943        C944   1.409       .  A
C944        F945   1.358       .  S
C949        C950   1.406       .  A
C949        C954   1.399       .  A
C949        H956   1.084       .  S
C950        C951   1.405   1_556  A
C951        C952   1.402   1_554  A
C951        F958   1.357       .  S
C952        C953   1.408       .  A
C952        H957   1.082   1_556  S
C953        C954   1.405       .  A
C954        F955   1.355       .  S
C959        C960   1.403       .  A
C959        C964   1.398       .  A
C959        H966   1.083       .  S
C960        C961   1.410       .  A
C961        C962   1.399       .  A
C961        F968   1.358       .  S
C962        C963   1.404       .  A
C962        H967   1.082       .  S
C963        C964   1.408       .  A
C964        F965   1.357       .  S
C969        C970   1.402       .  A
C969        C974   1.393       .  A
C969        H976   1.082       .  S
C970        C971   1.411       .  A
C971        C972   1.400       .  A
C971        F978   1.358       .  S
C972        C973   1.402       .  A
C972        H977   1.083       .  S
C973        C974   1.405       .  A
C974        F975   1.358       .  S
C979        C980   1.408       .  A
C979        C984   1.402       .  A
C979        H986   1.082       .  S
C980        C981   1.410       .  A
C981        C982   1.398       .  A
C981        F988   1.358       .  S
C982        C983   1.402       .  A
C982        H987   1.075       .  S
C983        C984   1.404       .  A
C984        F985   1.357       .  S
C989        C990   1.408       .  A
C989        C994   1.403       .  A
C989        H996   1.083       .  S
C990        C991   1.407       .  A
C991        C992   1.405       .  A
C991        F998   1.357       .  S
C992        C993   1.410       .  A
C992        H997   1.082       .  S
C993        C994   1.408       .  A
C994        F995   1.357       .  S
C999       C1000   1.407       .  A
C999       C1004   1.400       .  A
C999       H1006   1.084       .  S
C1000      C1001   1.406       .  A
C1001      C1002   1.400       .  A
C1001      F1008   1.358       .  S
C1002      C1003   1.407       .  A
C1002      H1007   1.084       .  S
C1003      C1004   1.407       .  A
C1004      F1005   1.357       .  S
C1009      C1010   1.407       .  A
C1009      C1014   1.406       .  A
C1009      H1016   1.083       .  S
C1010      C1011   1.405       .  A
C1011      C1012   1.391       .  A
C1011      F1018   1.358       .  S
C1012      C1013   1.403       .  A
C1012      H1017   1.084       .  S
C1013      C1014   1.409       .  A
C1014      F1015   1.357       .  S
C1019      C1020   1.405       .  A
C1019      C1024   1.401       .  A
C1019      H1026   1.084       .  S
C1020      C1021   1.410       .  A
C1021      C1022   1.398       .  A
C1021      F1028   1.357       .  S
C1022      C1023   1.402       .  A
C1022      H1027   1.084       .  S
C1023      C1024   1.409       .  A
C1024      F1025   1.355       .  S
C1029      C1030   1.405       .  A
C1029      C1034   1.396       .  A
C1029      H1036   1.084       .  S
C1030      C1031   1.403       .  A
C1031      C1032   1.395       .  A
C1031      F1038   1.358       .  S
C1032      C1033   1.407   1_655  A
C1032      H1037   1.083   1_655  S
C1033      C1034   1.407   1_455  A
C1034      F1035   1.358   1_556  S
C1039      C1040   1.405       .  A
C1039      C1044   1.402       .  A
C1039      H1046   1.084       .  S
C1040      C1041   1.406       .  A
C1041      C1042   1.392       .  A
C1041      F1048   1.358       .  S
C1042      C1043   1.404       .  A
C1042      H1047   1.084       .  S
C1043      C1044   1.406       .  A
C1044      F1045   1.357   1_556  S
C1049      C1050   1.405       .  A
C1049      C1054   1.392       .  A
C1049      H1056   1.083       .  S
C1050      C1051   1.408       .  A
C1051      C1052   1.408       .  A
C1051      F1058   1.357       .  S
C1052      C1053   1.409       .  A
C1052      H1057   1.082       .  S
C1053      C1054   1.407       .  A
C1054      F1055   1.356   1_655  S
C1059      C1060   1.407       .  A
C1059      C1064   1.402       .  A
C1059      H1066   1.084       .  S
C1060      C1061   1.406       .  A
C1061      C1062   1.399       .  A
C1061      F1068   1.358       .  S
C1062      C1063   1.407       .  A
C1062      H1067   1.083       .  S
C1063      C1064   1.406       .  A
C1064      F1065   1.357       .  S
C1069      C1070   1.406       .  A
C1069      C1074   1.397   1_556  A
C1069      H1076   1.084   1_556  S
C1070      C1071   1.405       .  A
C1071      C1072   1.398       .  A
C1071      F1078   1.357       .  S
C1072      C1073   1.406       .  A
C1072      H1077   1.083       .  S
C1073      C1074   1.406   1_556  A
C1074      F1075   1.358       .  S
C1079      C1080   1.407       .  A
C1079      C1084   1.401       .  A
C1079      H1086   1.077       .  S
C1080      C1081   1.408   1_455  A
C1081      C1082   1.402       .  A
C1081      F1088   1.357       .  S
C1082      C1083   1.407   1_655  A
C1082      H1087   1.082       .  S
C1083      C1084   1.406       .  A
C1084      F1085   1.357       .  S
C1089      C1090   1.406       .  A
C1089      C1094   1.393       .  A
C1089      H1096   1.083       .  S
C1090      C1091   1.404       .  A
C1091      C1092   1.400       .  A
C1091      F1098   1.358       .  S
C1092      C1093   1.408   1_655  A
C1092      H1097   1.085   1_655  S
C1093      C1094   1.403   1_455  A
C1094      F1095   1.357   1_655  S
C1099      C1100   1.406       .  A
C1099      C1104   1.402       .  A
C1099      H1106   1.083   1_655  S
C1100      C1101   1.410       .  A
C1101      C1102   1.400       .  A
C1101      F1108   1.357       .  S
C1102      C1103   1.404       .  A
C1102      H1107   1.083       .  S
C1103      C1104   1.409       .  A
C1104      F1105   1.358   1_655  S
C1109      C1110   1.406       .  A
C1109      C1114   1.398       .  A
C1109      H1116   1.080       .  S
C1110      C1111   1.407       .  A
C1111      C1112   1.401       .  A
C1111      F1118   1.357       .  S
C1112      C1113   1.408       .  A
C1112      H1117   1.082       .  S
C1113      C1114   1.403       .  A
C1114      F1115   1.357       .  S
C1119      C1120   1.402       .  A
C1119      C1124   1.398       .  A
C1119      H1126   1.084       .  S
C1120      C1121   1.408       .  A
C1121      C1122   1.393       .  A
C1121      F1128   1.358       .  S
C1122      C1123   1.403       .  A
C1122      H1127   1.084       .  S
C1123      C1124   1.408       .  A
C1124      F1125   1.357       .  S
C1129      C1130   1.405       .  A
C1129      C1134   1.398       .  A
C1129      H1136   1.082       .  S
C1130      C1131   1.410       .  A
C1131      C1132   1.401       .  A
C1131      F1138   1.357       .  S
C1132      C1133   1.406       .  A
C1132      H1137   1.083       .  S
C1133      C1134   1.407       .  A
C1134      F1135   1.357       .  S
C1139      C1140   1.408       .  A
C1139      C1144   1.402   1_545  A
C1139      H1146   1.082       .  S
C1140      C1141   1.411   1_545  A
C1141      C1142   1.406       .  A
C1141      F1148   1.357       .  S
C1142      C1143   1.407       .  A
C1142      H1147   1.084       .  S
C1143      C1144   1.405       .  A
C1144      F1145   1.357   1_565  S
C1149      C1150   1.402       .  A
C1149      C1154   1.396       .  A
C1149      H1156   1.084       .  S
C1150      C1151   1.404       .  A
C1151      C1152   1.398       .  A
C1151      F1158   1.358   1_556  S
C1152      C1153   1.408       .  A
C1152      H1157   1.084   1_556  S
C1153      C1154   1.408       .  A
C1154      F1155   1.357       .  S
C1159      C1160   1.405       .  A
C1159      C1164   1.398       .  A
C1159      H1166   1.083       .  S
C1160      C1161   1.409       .  A
C1161      C1162   1.401       .  A
C1161      F1168   1.357       .  S
C1162      C1163   1.405       .  A
C1162      H1167   1.083       .  S
C1163      C1164   1.409       .  A
C1164      F1165   1.358       .  S
C1169      C1170   1.409       .  A
C1169      C1174   1.403       .  A
C1169      H1176   1.083       .  S
C1170      C1171   1.405       .  A
C1171      C1172   1.396       .  A
C1171      F1178   1.357       .  S
C1172      C1173   1.405       .  A
C1172      H1177   1.082       .  S
C1173      C1174   1.407       .  A
C1174      F1175   1.358       .  S
C1179      C1180   1.406       .  A
C1179      C1184   1.404       .  A
C1179      H1186   1.085   1_545  S
C1180      C1181   1.411       .  A
C1181      C1182   1.396       .  A
C1181      F1188   1.357       .  S
C1182      C1183   1.400       .  A
C1182      H1187   1.085       .  S
C1183      C1184   1.410       .  A
C1184      F1185   1.357   1_545  S
