geometry optimzed in LAMMPS
_audit_creation_date              2020-12-01 
_audit_creation_method            'lammps2cif' 
_symmetry_space_group_name_H-M    'P1' 
_symmetry_Int_Tables_number       1 
_symmetry_cell_setting            triclinic 
loop_ 
_symmetry_equiv_pos_as_xyz 
  x,y,z 
_cell_length_a                    41.18041083 
_cell_length_b                    41.210519816911635 
_cell_length_c                    37.779509867276445 
_cell_angle_alpha                 90.33159694373113 
_cell_angle_beta                  89.49744040049494 
_cell_angle_gamma                 119.92280202637828 
loop_ 
_atom_site_label 
_atom_site_type_symbol 
_atom_site_fract_x 
_atom_site_fract_y 
_atom_site_fract_z 
_atom_site_charge 
O1          O  0.74030561  0.96586510  0.41979894    -0.74800
O2          O  0.77592552  0.89709021  0.43800078    -0.74800
O3          O  0.72773618  0.89993085  0.39189997    -0.74900
O4          O  0.78944539  0.96310796  0.46559620    -0.74900
O5          O  0.74353484  0.93278856  0.50512579    -0.74800
O6          O  0.68067449  0.87026175  0.43031394    -0.74800
O7          O  0.72830338  0.86657769  0.47584573    -0.74800
O8          O  0.69496353  0.93628782  0.45999147    -0.74900
Ni9        Ni  0.76004832  0.93268560  0.42744861     1.25400
Ni10       Ni  0.71021608  0.90043359  0.46920716     1.25400
C11         C  0.71175021  0.96231541  0.43714488     0.87400
C12         C  0.75719454  0.87002695  0.45957428     0.87300
C13         C  0.69420867  0.87432528  0.39886546     0.87400
C14         C  0.77701954  0.95826083  0.49736879     0.87500
O15         O  0.63407779  0.06753530  0.42809989    -0.74800
O16         O  0.56748355  0.10621822  0.41159243    -0.74800
O17         O  0.56781805  0.05529308  0.45622285    -0.74900
O18         O  0.63368660  0.11928384  0.38422426    -0.74900
O19         O  0.60355893  0.07551459  0.34327547    -0.74800
O20         O  0.53737744  0.01012892  0.41654268    -0.74800
O21         O  0.53672143  0.06059252  0.37216391    -0.74800
O22         O  0.60402950  0.02376500  0.38709206    -0.74900
Ni23       Ni  0.60188532  0.08860127  0.42146827     1.25400
Ni24       Ni  0.56938837  0.04086101  0.37833732     1.25400
C25         C  0.63025737  0.03947982  0.40981383     0.87400
C26         C  0.54091251  0.08926820  0.38925711     0.87300
C27         C  0.54115633  0.02255562  0.44843467     0.87400
C28         C  0.62967341  0.10846461  0.35193744     0.87500
O29         O  0.00387044  0.22930997  0.91324932    -0.74800
O30         O  0.06832561  0.18834738  0.93174057    -0.74800
O31         O  0.00170515  0.17655717  0.95739877    -0.74900
O32         O  0.07051912  0.24049717  0.88685059    -0.74900
O33         O  0.10029478  0.28491221  0.92724725    -0.74800
O34         O  0.03113573  0.22047553  0.99862478    -0.74800
O35         O  0.09833473  0.23320318  0.97204585    -0.74800
O36         O  0.03374847  0.27269334  0.95475297    -0.74900
Ni37       Ni  0.03503282  0.20712282  0.92081406     1.25400
Ni38       Ni  0.06700470  0.25437632  0.96458665     1.25400
C39         C  0.00794127  0.25742650  0.93161398     0.87400
C40         C  0.09415699  0.20453786  0.95490772     0.87300
C41         C  0.00461207  0.18805692  0.98935671     0.87400
C42         C  0.09717148  0.27309848  0.89524292     0.87500
O43         O  0.90250561  0.33656996  0.93548187    -0.74800
O44         O  0.85974837  0.39893246  0.91512702    -0.74800
O45         O  0.85136096  0.33414526  0.88939015    -0.74900
O46         O  0.91048567  0.40216638  0.96204903    -0.74900
O47         O  0.95649952  0.43367637  0.92326040    -0.74800
O48         O  0.89678412  0.36589558  0.84976725    -0.74800
O49         O  0.90643816  0.43121102  0.87676783    -0.74800
O50         O  0.94742693  0.36829753  0.89553636    -0.74900
Ni51       Ni  0.87948159  0.36681033  0.92703754     1.25400
Ni52       Ni  0.92848066  0.40093131  0.88504291     1.25400
C53         C  0.93137012  0.34146331  0.91774629     0.87400
C54         C  0.87630045  0.42523764  0.89236935     0.87300
C55         C  0.86426868  0.33864355  0.85779233     0.87400
C56         C  0.94275419  0.43003898  0.95452536     0.87500
O57         O  0.23103551  0.99945572  0.59869089    -0.74800
O58         O  0.18930928  0.06317777  0.57996761    -0.74800
O59         O  0.17943987  0.99784544  0.55378331    -0.74900
O60         O  0.24016566  0.06493227  0.62599637    -0.74900
O61         O  0.28561743  0.09707728  0.58680689    -0.74800
O62         O  0.22485526  0.02826777  0.51379632    -0.74800
O63         O  0.23497509  0.09416217  0.54033522    -0.74800
O64         O  0.27624336  0.03166516  0.55917968    -0.74900
Ni65       Ni  0.20844039  0.03025261  0.59110028     1.25400
Ni66       Ni  0.25707374  0.06398245  0.54867189     1.25400
C67         C  0.26014566  0.00466976  0.58118126     0.87400
C68         C  0.20561901  0.08914700  0.55682476     0.87300
C69         C  0.19214171  0.00149385  0.52221075     0.87400
C70         C  0.27250573  0.09255788  0.61851687     0.87500
O71         O  0.33663747  0.89627790  0.57799052    -0.74800
O72         O  0.40237210  0.85698156  0.59727132    -0.74800
O73         O  0.33631786  0.84570618  0.62388243    -0.74900
O74         O  0.40262052  0.90661803  0.55046813    -0.74900
O75         O  0.43363290  0.95290500  0.58898560    -0.74800
O76         O  0.36668652  0.89110079  0.66348421    -0.74800
O77         O  0.43330630  0.90369611  0.63562285    -0.74800
O78         O  0.36743202  0.94138594  0.61784001    -0.74900
Ni79       Ni  0.36835711  0.87480647  0.58598199     1.25400
Ni80       Ni  0.40137255  0.92394316  0.62782542     1.25400
C81         C  0.34094031  0.92494363  0.59553723     0.87400
C82         C  0.42892241  0.87441681  0.61956846     0.87300
C83         C  0.34013879  0.85811446  0.65558957     0.87400
C84         C  0.42962038  0.93942387  0.55749640     0.87500
O85         O  0.39698169  0.29698462  0.74842400    -0.74800
O86         O  0.43687005  0.23152112  0.76599113    -0.74800
O87         O  0.38705022  0.23159009  0.71994336    -0.74900
O88         O  0.44768039  0.29676043  0.79305377    -0.74900
O89         O  0.40241439  0.26606726  0.83305250    -0.74800
O90         O  0.34101423  0.19958809  0.75864491    -0.74800
O91         O  0.39052655  0.19997187  0.80484528    -0.74800
O92         O  0.35170857  0.26513251  0.78802648    -0.74900
Ni93       Ni  0.41866244  0.26532908  0.75538656     1.25400
Ni94       Ni  0.36969022  0.23152062  0.79747923     1.25400
C95         C  0.36841504  0.29246159  0.76647194     0.87400
C96         C  0.41994184  0.20494671  0.78848147     0.87300
C97         C  0.35456457  0.20409197  0.72708079     0.87400
C98         C  0.43543674  0.29248408  0.82484286     0.87500
O99         O  0.29705852  0.40517297  0.76503100    -0.74800
O100        O  0.23164495  0.44507079  0.74634710    -0.74800
O101        O  0.23048830  0.39406860  0.79198355    -0.74900
O102        O  0.29772339  0.45684623  0.71995760    -0.74900
O103        O  0.26737261  0.41260682  0.67935584    -0.74800
O104        O  0.20085370  0.34872076  0.75237305    -0.74800
O105        O  0.20108238  0.39897018  0.70729488    -0.74800
O106        O  0.26719005  0.36139942  0.72389643    -0.74900
Ni107      Ni  0.26540575  0.42687285  0.75732695     1.25400
Ni108      Ni  0.23309954  0.37881316  0.71438047     1.25400
C109        C  0.29315874  0.37701172  0.74683485     0.87400
C110        C  0.20543452  0.42805587  0.72366917     0.87300
C111        C  0.20382524  0.36130875  0.78404535     0.87400
C112        C  0.29353978  0.44549557  0.68781106     0.87500
O113        O  0.67057429  0.57279489  0.25450004    -0.74800
O114        O  0.73273951  0.52861932  0.26790755    -0.74800
O115        O  0.66807187  0.51818001  0.29630149    -0.74900
O116        O  0.73537275  0.58254409  0.22565582    -0.74900
O117        O  0.76714753  0.62600909  0.26625290    -0.74800
O118        O  0.69996021  0.56034187  0.33819537    -0.74800
O119        O  0.76540967  0.57256950  0.30823760    -0.74800
O120        O  0.70193046  0.61460555  0.29679601    -0.74900
Ni121      Ni  0.70050619  0.54908171  0.25961364     1.25400
Ni122      Ni  0.73476094  0.59495427  0.30384425     1.25400
C123        C  0.67581006  0.60072797  0.27379250     0.87400
C124        C  0.75947483  0.54373244  0.29028689     0.87300
C125        C  0.67285822  0.52830562  0.32878002     0.87400
C126        C  0.76290050  0.61458098  0.23404906     0.87500
O127        O  0.56715229  0.67545993  0.27074362    -0.74800
O128        O  0.52280197  0.73688808  0.25247870    -0.74800
O129        O  0.51402178  0.67191419  0.22629879    -0.74900
O130        O  0.57496528  0.74007053  0.29763153    -0.74900
O131        O  0.62000279  0.77193501  0.25794293    -0.74800
O132        O  0.55781487  0.70346361  0.18537636    -0.74800
O133        O  0.56826843  0.76913652  0.21302158    -0.74800
O134        O  0.61065791  0.70709462  0.22956508    -0.74900
Ni135      Ni  0.54318277  0.70494117  0.26324711     1.25400
Ni136      Ni  0.59078130  0.73908012  0.22005374     1.25400
C137        C  0.59598404  0.68097372  0.25257805     0.87400
C138        C  0.53867062  0.76325158  0.22963621     0.87300
C139        C  0.52561012  0.67603268  0.19423330     0.87400
C140        C  0.60736707  0.76734557  0.28982276     0.87500
O141        O  0.06453119  0.63251217  0.08557372    -0.74800
O142        O  0.10480053  0.56710174  0.10198746    -0.74800
O143        O  0.05343830  0.56677272  0.05747194    -0.74900
O144        O  0.11672760  0.63282789  0.12920314    -0.74900
O145        O  0.07269572  0.60205942  0.17015911    -0.74800
O146        O  0.00857874  0.53567268  0.09745034    -0.74800
O147        O  0.05936725  0.53589717  0.14176939    -0.74800
O148        O  0.02072268  0.60138610  0.12659502    -0.74900
Ni149      Ni  0.08641968  0.60094683  0.09205663     1.25400
Ni150      Ni  0.03871873  0.56767689  0.13537528     1.25400
C151        C  0.03624738  0.62796972  0.10410903     0.87400
C152        C  0.08833297  0.54067828  0.12471075     0.87300
C153        C  0.02093651  0.53966068  0.06553676     0.87400
C154        C  0.10556821  0.62832519  0.16140211     0.87500
O155        O  0.96293235  0.73822911  0.10128966    -0.74800
O156        O  0.89966253  0.78067186  0.08348051    -0.74800
O157        O  0.89760465  0.72931493  0.12893161    -0.74900
O158        O  0.96499387  0.79053488  0.05655419    -0.74900
O159        O  0.93412135  0.74597381  0.01625271    -0.74800
O160        O  0.86606895  0.68430456  0.08957490    -0.74800
O161        O  0.86828147  0.73510518  0.04413721    -0.74800
O162        O  0.93128620  0.69397807  0.06099419    -0.74900
Ni163      Ni  0.93250006  0.76126257  0.09401437     1.25400
Ni164      Ni  0.89881971  0.71324022  0.05134915     1.25400
C165        C  0.95778949  0.70944680  0.08339794     0.87400
C166        C  0.87315075  0.76412824  0.06101575     0.87300
C167        C  0.86997364  0.69707286  0.12126047     0.87400
C168        C  0.96090966  0.77859049  0.02467761     0.87500
O169        O  0.54382213  0.89692293  0.08024861    -0.74800
O170        O  0.43723762  0.85255280  0.09559604    -0.74800
O171        O  0.48772526  0.90478567  0.05025041    -0.74900
O172        O  0.49255676  0.84466117  0.12459933    -0.74900
O173        O  0.50420554  0.88974544  0.16386911    -0.74800
O174        O  0.49735904  0.94918315  0.08945706    -0.74800
O175        O  0.44842828  0.89735915  0.13515757    -0.74800
O176        O  0.55328789  0.94197008  0.11875069    -0.74900
Ni177      Ni  0.48998729  0.87316738  0.08617015     1.25400
Ni178      Ni  0.50116457  0.92115154  0.12812218     1.25400
C179        C  0.56606933  0.92687364  0.09728279     0.87400
C180        C  0.42566775  0.86752784  0.11862239     0.87300
C181        C  0.49133948  0.93684488  0.05753684     0.87400
C182        C  0.49956558  0.85734612  0.15629613     0.87500
O183        O  0.75081358  0.99741061  0.09746986    -0.74800
O184        O  0.85679085  0.06272657  0.07888701    -0.74800
O185        O  0.80638437  0.06307128  0.12512379    -0.74900
O186        O  0.80236709  0.99700667  0.05230345    -0.74900
O187        O  0.78759426  0.02745261  0.01270600    -0.74800
O188        O  0.79386406  0.09554728  0.08604327    -0.74800
O189        O  0.84224072  0.09352844  0.03948917    -0.74800
O190        O  0.73874019  0.03048676  0.05864859    -0.74900
Ni191      Ni  0.80451009  0.02884559  0.08988769     1.25400
Ni192      Ni  0.79008571  0.06277313  0.04781340     1.25400
C193        C  0.72736878  0.00376887  0.08095840     0.87400
C194        C  0.86659801  0.08922715  0.05626218     0.87300
C195        C  0.80198243  0.09085566  0.11765478     0.87400
C196        C  0.79410483  0.00101703  0.02073110     0.87500
O197        O  0.88404494  0.29535677  0.24891445    -0.74800
O198        O  0.77652932  0.23473501  0.25870529    -0.74800
O199        O  0.83066985  0.29775107  0.28923661    -0.74900
O200        O  0.82919608  0.23197914  0.21715063    -0.74900
O201        O  0.83584127  0.19682296  0.25775843    -0.74800
O202        O  0.83957202  0.26447748  0.33044138    -0.74800
O203        O  0.78500865  0.20110710  0.29993263    -0.74800
O204        O  0.89089135  0.25973494  0.28896169    -0.74900
Ni205      Ni  0.82994101  0.26618543  0.25194289     1.25400
Ni206      Ni  0.83813031  0.22930968  0.29567346     1.25400
C207        C  0.90509450  0.28764357  0.26782059     0.87400
C208        C  0.76340390  0.20822380  0.28157556     0.87300
C209        C  0.83551001  0.29225005  0.32156138     0.87400
C210        C  0.83120593  0.20296789  0.22541669     0.87500
O211        O  0.08905608  0.39993341  0.26988746    -0.74800
O212        O  0.19488525  0.44605330  0.24866027    -0.74800
O213        O  0.13782075  0.45536359  0.22619200    -0.74900
O214        O  0.14691941  0.39166211  0.29309103    -0.74900
O215        O  0.13591896  0.34939404  0.25107605    -0.74800
O216        O  0.12388024  0.41258890  0.18381559    -0.74800
O217        O  0.18154716  0.40360237  0.20597825    -0.74800
O218        O  0.07794509  0.35698602  0.22837757    -0.74900
Ni219      Ni  0.14256568  0.42478953  0.26097017     1.25400
Ni220      Ni  0.12937477  0.37920831  0.21575331     1.25400
C221        C  0.06622600  0.37025940  0.25277181     0.87400
C222        C  0.20528412  0.43169504  0.22392716     0.87300
C223        C  0.12916228  0.44460967  0.19414392     0.87400
C224        C  0.14372091  0.36041060  0.28333060     0.87500
O225        O  0.21504366  0.22823580  0.40959080    -0.74800
O226        O  0.10932951  0.18900197  0.42537123    -0.74800
O227        O  0.16158996  0.24125589  0.38197953    -0.74900
O228        O  0.16203453  0.17533180  0.45210103    -0.74900
O229        O  0.17551964  0.21864097  0.49385674    -0.74800
O230        O  0.17475825  0.28496542  0.42303904    -0.74800
O231        O  0.12317665  0.23311140  0.46643124    -0.74800
O232        O  0.22759925  0.27144286  0.45124439    -0.74900
Ni233      Ni  0.16161130  0.20694451  0.41574294     1.25400
Ni234      Ni  0.17574475  0.25359453  0.46009517     1.25400
C235        C  0.23864146  0.25620348  0.42817273     0.87400
C236        C  0.09913800  0.20515862  0.44843951     0.87300
C237        C  0.16693118  0.27356041  0.39089373     0.87400
C238        C  0.16904505  0.18600989  0.48435753     0.87500
O239        O  0.42324523  0.33088626  0.43524736    -0.74800
O240        O  0.52916898  0.39691273  0.41907196    -0.74800
O241        O  0.47715802  0.39696435  0.46321305    -0.74900
O242        O  0.47618916  0.33096148  0.39177371    -0.74900
O243        O  0.46318857  0.36151357  0.35079199    -0.74800
O244        O  0.46369613  0.42755296  0.42289120    -0.74800
O245        O  0.51522925  0.42770609  0.37907084    -0.74800
O246        O  0.41126544  0.36191810  0.39409101    -0.74900
Ni247      Ni  0.47685125  0.36277704  0.42885441     1.25400
Ni248      Ni  0.46286437  0.39574213  0.38533148     1.25400
C249        C  0.39979888  0.33533305  0.41659227     0.87400
C250        C  0.53924768  0.42332261  0.39637593     0.87300
C251        C  0.47146030  0.42374623  0.45484104     0.87400
C252        C  0.46951383  0.33519603  0.35964236     0.87500
O253        O  0.54710663  0.62510763  0.58063656    -0.74800
O254        O  0.44014430  0.56889482  0.59428449    -0.74800
O255        O  0.49677322  0.63262890  0.62152877    -0.74900
O256        O  0.48994654  0.56146500  0.55307072    -0.74900
O257        O  0.49642019  0.52777358  0.59538772    -0.74800
O258        O  0.50594456  0.60093576  0.66423834    -0.74800
O259        O  0.44849412  0.53686316  0.63730569    -0.74800
O260        O  0.55394438  0.59090968  0.62231796    -0.74900
Ni261      Ni  0.49329404  0.59825833  0.58585250     1.25400
Ni262      Ni  0.50145596  0.56298129  0.63137170     1.25400
C263        C  0.56800813  0.61674398  0.59897161     0.87400
C264        C  0.42701739  0.54346429  0.61815466     0.87300
C265        C  0.50258812  0.62874994  0.65401891     0.87400
C266        C  0.49142813  0.53254773  0.56281075     0.87500
O267        O  0.75064952  0.72648765  0.59859762    -0.74800
O268        O  0.85739615  0.77292657  0.58336102    -0.74800
O269        O  0.80128547  0.78111036  0.55575398    -0.74900
O270        O  0.80745351  0.71934045  0.62661911    -0.74900
O271        O  0.79965762  0.67685094  0.58591889    -0.74800
O272        O  0.78884607  0.73709226  0.51492283    -0.74800
O273        O  0.84659533  0.73047738  0.54135580    -0.74800
O274        O  0.74177323  0.68220482  0.55931224    -0.74900
Ni275      Ni  0.80446638  0.75152969  0.59253995     1.25400
Ni276      Ni  0.79387567  0.70518437  0.54886058     1.25400
C277        C  0.72878885  0.69640344  0.58152647     0.87400
C278        C  0.86932528  0.75863826  0.55994536     0.87300
C279        C  0.79343757  0.76915264  0.52394889     0.87400
C280        C  0.80586345  0.68853820  0.61805094     0.87500
O281        O  0.88014903  0.56083307  0.74419454    -0.74800
O282        O  0.77383888  0.51616170  0.76099463    -0.74800
O283        O  0.82403147  0.56865632  0.71629345    -0.74900
O284        O  0.82950507  0.50769004  0.78861833    -0.74900
O285        O  0.84035648  0.55156756  0.82906691    -0.74800
O286        O  0.83574744  0.61320714  0.75602030    -0.74800
O287        O  0.78553499  0.56110394  0.80053126    -0.74800
O288        O  0.89068741  0.60413969  0.78517239    -0.74900
Ni289      Ni  0.82651445  0.53674215  0.75108081     1.25400
Ni290      Ni  0.83843278  0.58408202  0.79407727     1.25400
C291        C  0.90285254  0.58975277  0.76225008     0.87400
C292        C  0.76245251  0.53154811  0.78376098     0.87300
C293        C  0.82869456  0.60091497  0.72410991     0.87400
C294        C  0.83617180  0.51957507  0.82056994     0.87500
O295        O  0.08701676  0.66925559  0.76421348    -0.74800
O296        O  0.19330800  0.73321348  0.74848102    -0.74800
O297        O  0.14128895  0.73478528  0.79189617    -0.74900
O298        O  0.13938190  0.66726577  0.72184969    -0.74900
O299        O  0.12700414  0.69746019  0.68001177    -0.74800
O300        O  0.12917398  0.76608355  0.75115048    -0.74800
O301        O  0.18053359  0.76409151  0.70763400    -0.74800
O302        O  0.07553259  0.70012984  0.72243438    -0.74900
Ni303      Ni  0.14066549  0.70007106  0.75810144     1.25400
Ni304      Ni  0.12769348  0.73311781  0.71384452     1.25400
C305        C  0.06381076  0.67392703  0.74540387     0.87400
C306        C  0.20414320  0.75925844  0.72525918     0.87300
C307        C  0.13588772  0.76168441  0.78340118     0.87400
C308        C  0.13227803  0.67061194  0.68965833     0.87500
O309        O  0.42068781  0.06442183  0.92957890    -0.74800
O310        O  0.52714344  0.10957339  0.91109777    -0.74800
O311        O  0.47094292  0.11951509  0.88692449    -0.74900
O312        O  0.47741905  0.05541429  0.95510387    -0.74900
O313        O  0.46621869  0.01253793  0.91366653    -0.74800
O314        O  0.45816151  0.07695015  0.84457970    -0.74800
O315        O  0.51439490  0.06647795  0.86924828    -0.74800
O316        O  0.41016387  0.02190556  0.88795574    -0.74900
Ni317      Ni  0.47446349  0.08874348  0.92219748     1.25400
Ni318      Ni  0.46189187  0.04302577  0.87734616     1.25400
C319        C  0.39785783  0.03559648  0.91140480     0.87400
C320        C  0.53796691  0.09477679  0.88710963     0.87300
C321        C  0.46287271  0.10880269  0.85482031     0.87400
C322        C  0.47332413  0.02363880  0.94598525     0.87500
O323        O  0.21394513  0.96308634  0.91391310    -0.74800
O324        O  0.10813639  0.90128173  0.93321405    -0.74800
O325        O  0.16448542  0.96573909  0.95980300    -0.74900
O326        O  0.15680799  0.89891903  0.88621249    -0.74900
O327        O  0.16783235  0.86480598  0.92462917    -0.74800
O328        O  0.17824946  0.93418775  0.99893947    -0.74800
O329        O  0.12125259  0.86902050  0.97223105    -0.74800
O330        O  0.22529771  0.92854965  0.95170603    -0.74900
Ni331      Ni  0.16046650  0.93345738  0.92191137     1.25400
Ni332      Ni  0.17363868  0.89801674  0.96332466     1.25400
C333        C  0.23687653  0.95551274  0.92965725     0.87400
C334        C  0.09756549  0.87467709  0.95577453     0.87300
C335        C  0.17263068  0.96135888  0.99128114     0.87400
C336        C  0.16016819  0.87041570  0.89311718     0.87500
O337        O  0.63251746  0.54252047  0.92896039    -0.74800
O338        O  0.56415202  0.43729407  0.91310067    -0.74800
O339        O  0.63070940  0.48922514  0.88494692    -0.74900
O340        O  0.56656556  0.48984254  0.95764976    -0.74900
O341        O  0.53608058  0.50437334  0.91816284    -0.74800
O342        O  0.60090756  0.50373552  0.84450195    -0.74800
O343        O  0.53396700  0.45247548  0.87361007    -0.74800
O344        O  0.60205645  0.55605859  0.88841476    -0.74900
Ni345      Ni  0.59964123  0.48923928  0.92255793     1.25400
Ni346      Ni  0.56719496  0.50467321  0.87974607     1.25400
C347        C  0.62829654  0.56658228  0.91106692     0.87400
C348        C  0.53733001  0.42789656  0.89109518     0.87300
C349        C  0.62699064  0.49685288  0.85299245     0.87400
C350        C  0.54015242  0.49630351  0.94998371     0.87500
O351        O  0.73460115  0.75073597  0.91194877    -0.74800
O352        O  0.77400927  0.85584719  0.92956496    -0.74800
O353        O  0.78548717  0.80223959  0.95700691    -0.74900
O354        O  0.72389448  0.80551638  0.88408306    -0.74900
O355        O  0.67790069  0.79125636  0.92312246    -0.74800
O356        O  0.74015818  0.78820703  0.99695642    -0.74800
O357        O  0.72765431  0.84131009  0.96850939    -0.74800
O358        O  0.68958484  0.73718889  0.95206786    -0.74900
Ni359      Ni  0.75605932  0.80392489  0.91921627     1.25400
Ni360      Ni  0.70714082  0.78890597  0.96154150     1.25400
C361        C  0.70585781  0.72668651  0.92953672     0.87400
C362        C  0.75672123  0.86560337  0.95173790     0.87300
C363        C  0.77334366  0.79516363  0.98890738     0.87400
C364        C  0.69124903  0.80021094  0.89157106     0.87500
O365        O  0.67484483  0.08956185  0.74561650    -0.74800
O366        O  0.74062035  0.19464400  0.76433096    -0.74800
O367        O  0.74130813  0.14372618  0.71895365    -0.74900
O368        O  0.67382481  0.14103039  0.79001881    -0.74900
O369        O  0.70293397  0.12599172  0.83078861    -0.74800
O370        O  0.77159585  0.12935004  0.75895964    -0.74800
O371        O  0.77023104  0.17921896  0.80427941    -0.74800
O372        O  0.70479180  0.07564222  0.78641490    -0.74900
Ni373      Ni  0.70660823  0.14275799  0.75325169     1.25400
Ni374      Ni  0.73848716  0.12706875  0.79653203     1.25400
C375        C  0.67884934  0.06535268  0.76346298     0.87400
C376        C  0.76635697  0.20389832  0.78752745     0.87300
C377        C  0.76773720  0.13742096  0.72705215     0.87400
C378        C  0.67663212  0.13237674  0.82182946     0.87500
O379        O  0.56835389  0.88153481  0.76409451    -0.74800
O380        O  0.52623511  0.77594220  0.74565705    -0.74800
O381        O  0.57704085  0.82540967  0.79172056    -0.74900
O382        O  0.51672256  0.83122686  0.71880803    -0.74900
O383        O  0.56184689  0.84428040  0.67888422    -0.74800
O384        O  0.62275712  0.83859603  0.75265000    -0.74800
O385        O  0.57242425  0.78945165  0.70680619    -0.74800
O386        O  0.61305077  0.89371775  0.72398892    -0.74900
Ni387      Ni  0.54550215  0.82812253  0.75651913     1.25400
Ni388      Ni  0.59415513  0.84196751  0.71421891     1.25400
C389        C  0.59742062  0.90499893  0.74643670     0.87400
C390        C  0.54282753  0.76561586  0.72318755     0.87300
C391        C  0.60953650  0.83028062  0.78429829     0.87400
C392        C  0.52927711  0.83905329  0.68708426     0.87500
O393        O  0.96680643  0.21198018  0.59301799    -0.74800
O394        O  0.90523505  0.10553799  0.58070991    -0.74800
O395        O  0.96868040  0.15997390  0.54993239    -0.74900
O396        O  0.90384223  0.15693966  0.62402442    -0.74900
O397        O  0.86912552  0.16616334  0.58479945    -0.74800
O398        O  0.93535741  0.17057164  0.51007018    -0.74800
O399        O  0.87145640  0.11604748  0.54125322    -0.74800
O400        O  0.93236953  0.22110702  0.55327399    -0.74900
Ni401      Ni  0.93747649  0.15833637  0.58827626     1.25400
Ni402      Ni  0.90088608  0.16880673  0.54589581     1.25400
C403        C  0.95950498  0.23393471  0.57511407     0.87400
C404        C  0.87742625  0.09359726  0.55957123     0.87300
C405        C  0.96317919  0.16624979  0.51805293     0.87400
C406        C  0.87528054  0.16006943  0.61667357     0.87500
O407        O  0.06220040  0.41790634  0.57534918    -0.74800
O408        O  0.10491559  0.52268090  0.59723121    -0.74800
O409        O  0.11488443  0.46657456  0.62075756    -0.74900
O410        O  0.05277539  0.47456861  0.55132323    -0.74900
O411        O  0.00808204  0.46064074  0.59183645    -0.74800
O412        O  0.07061265  0.45221690  0.66192700    -0.74800
O413        O  0.05994746  0.50806346  0.63777254    -0.74800
O414        O  0.01819835  0.40442871  0.61656055    -0.74900
Ni415      Ni  0.08523882  0.47089159  0.58466024     1.25400
Ni416      Ni  0.03759356  0.45582249  0.62844476     1.25400
C417        C  0.03343572  0.39391449  0.59292418     0.87400
C418        C  0.08908376  0.53235706  0.62111301     0.87300
C419        C  0.10312303  0.45804820  0.65266298     0.87400
C420        C  0.02040494  0.46930178  0.55998045     0.87500
O421        O  0.88992976  0.54051800  0.43359286    -0.74800
O422        O  0.84991981  0.43508464  0.41565598    -0.74800
O423        O  0.90044490  0.48579397  0.46132173    -0.74900
O424        O  0.83861682  0.48926505  0.38863612    -0.74900
O425        O  0.88386069  0.50343227  0.34855536    -0.74800
O426        O  0.94592598  0.49946568  0.42175313    -0.74800
O427        O  0.89586036  0.44954110  0.37625658    -0.74800
O428        O  0.93473000  0.55356295  0.39335199    -0.74900
Ni429      Ni  0.86809925  0.48719072  0.42625011     1.25400
Ni430      Ni  0.91670347  0.50194905  0.38360584     1.25400
C431        C  0.91887100  0.56434703  0.41603383     0.87400
C432        C  0.86666912  0.42527692  0.39284313     0.87300
C433        C  0.93315856  0.49148526  0.45354252     0.87400
C434        C  0.85107057  0.49744909  0.35689462     0.87500
O435        O  0.99964247  0.74898438  0.41771666    -0.74800
O436        O  0.06655571  0.85359421  0.43691248    -0.74800
O437        O  0.06525870  0.80378968  0.38965995    -0.74900
O438        O  0.00098177  0.79979099  0.46439803    -0.74900
O439        O  0.03149373  0.78392698  0.50286603    -0.74800
O440        O  0.09699974  0.78869534  0.42725328    -0.74800
O441        O  0.09769705  0.83766551  0.47457210    -0.74800
O442        O  0.03107682  0.73418277  0.45600111    -0.74900
Ni443      Ni  0.03193676  0.80197641  0.42580849     1.25400
Ni444      Ni  0.06541458  0.78550464  0.46651411     1.25400
C445        C  0.00410622  0.72435973  0.43424625     0.87400
C446        C  0.09356026  0.86261557  0.45857255     0.87300
C447        C  0.09250503  0.79825967  0.39617880     0.87400
C448        C  0.00528210  0.79104169  0.49571258     0.87500
O449        O  0.40279207  0.08557421  0.24442517    -0.74800
O450        O  0.44796864  0.19134718  0.26335427    -0.74800
O451        O  0.45546774  0.13476181  0.28963253    -0.74900
O452        O  0.39602093  0.14290712  0.21729839    -0.74900
O453        O  0.35105937  0.13144252  0.25685449    -0.74800
O454        O  0.41079003  0.12237289  0.32989205    -0.74800
O455        O  0.40253325  0.17878889  0.30285219    -0.74800
O456        O  0.35836788  0.07447947  0.28457311    -0.74900
Ni457      Ni  0.42712610  0.13900123  0.25220895     1.25400
Ni458      Ni  0.37905461  0.12633228  0.29491535     1.25400
C459        C  0.37347683  0.06270566  0.26209153     0.87400
C460        C  0.43224220  0.20214157  0.28632880     0.87300
C461        C  0.44320716  0.12732044  0.32147544     0.87400
C462        C  0.36406214  0.13919943  0.22510439     0.87500
O463        O  0.29578114  0.87992828  0.26426865    -0.74800
O464        O  0.23202914  0.77313860  0.25302292    -0.74800
O465        O  0.29660064  0.82629758  0.22306025    -0.74900
O466        O  0.23161562  0.82607446  0.29513709    -0.74900
O467        O  0.19830589  0.83611222  0.25499109    -0.74800
O468        O  0.26428741  0.83658109  0.18190764    -0.74800
O469        O  0.19928471  0.78412410  0.21279230    -0.74800
O470        O  0.26259859  0.88920698  0.22340715    -0.74900
Ni471      Ni  0.26523206  0.82608110  0.26034359     1.25400
Ni472      Ni  0.22997415  0.83689392  0.21683475     1.25400
C473        C  0.28986672  0.90214634  0.24512432     0.87400
C474        C  0.20477942  0.76139805  0.23114554     0.87300
C475        C  0.29163080  0.83179247  0.19078987     0.87400
C476        C  0.20369808  0.82999135  0.28711122     0.87500
O477        O  0.23725733  0.21522788  0.09948767    -0.74800
O478        O  0.19594694  0.10896663  0.08292922    -0.74800
O479        O  0.24865040  0.16057576  0.12645832    -0.74900
O480        O  0.18352135  0.16293555  0.05701089    -0.74900
O481        O  0.22631914  0.17567827  0.01478086    -0.74800
O482        O  0.29232557  0.17304451  0.08518685    -0.74800
O483        O  0.23993641  0.12247518  0.04163985    -0.74800
O484        O  0.27996864  0.22707581  0.05748618    -0.74900
Ni485      Ni  0.21482820  0.16152856  0.09296593     1.25400
Ni486      Ni  0.26119314  0.17506765  0.04831065     1.25400
C487        C  0.26536247  0.23873660  0.08073102     0.87400
C488        C  0.21181296  0.09851075  0.05967617     0.87300
C489        C  0.28085813  0.16569640  0.11744171     0.87400
C490        C  0.19377880  0.16948950  0.02461176     0.87500
O491        O  0.34183546  0.42407552  0.07979310    -0.74800
O492        O  0.40440113  0.52947244  0.10016062    -0.74800
O493        O  0.40802806  0.48043755  0.05463508    -0.74900
O494        O  0.33826628  0.47402611  0.12452593    -0.74900
O495        O  0.36820946  0.46061797  0.16578632    -0.74800
O496        O  0.43813430  0.46603171  0.09462044    -0.74800
O497        O  0.43501983  0.51522831  0.14001850    -0.74800
O498        O  0.37159612  0.41089419  0.12138707    -0.74900
Ni499      Ni  0.37206667  0.47742633  0.08827693     1.25400
Ni500      Ni  0.40435991  0.46269483  0.13186398     1.25400
C501        C  0.34613720  0.40015155  0.09783521     0.87400
C502        C  0.42993913  0.53940200  0.12367320     0.87300
C503        C  0.43497210  0.47498265  0.06288051     0.87400
C504        C  0.34152757  0.46625320  0.15652081     0.87500
C505        C  0.30057831  0.30341853  0.05595688    -0.26700
C506        C  0.28185146  0.28008802  0.08510068    -0.14700
C507        C  0.28189537  0.29696796  0.11785018     0.35900
C508        C  0.30222145  0.33637746  0.12100171    -0.26100
C509        C  0.32164670  0.35936043  0.09202670    -0.15400
C510        C  0.32023397  0.34253943  0.05905808     0.37000
N511        N  0.34015056  0.36440763  0.02876392    -0.89600
H512        H  0.30070325  0.29112628  0.03055405     0.18100
H513        H  0.30339807  0.34930112  0.14638544     0.18100
N514        N  0.26301755  0.27426612  0.14820162    -0.88600
H515        H  0.36853341  0.38048530  0.03514863     0.35500
H516        H  0.33002709  0.38249242  0.02289687     0.40600
H517        H  0.23424106  0.26118080  0.14344861     0.40200
H518        H  0.26781538  0.29103186  0.17061957     0.35100
C519        C  0.32522861  0.14441823  0.13553227    -0.26700
C520        C  0.30406836  0.16138940  0.14472707    -0.14700
C521        C  0.30275594  0.17105706  0.18047055     0.35900
C522        C  0.32185830  0.16272012  0.20629622    -0.26100
C523        C  0.34263050  0.14532963  0.19720065    -0.15400
C524        C  0.34422732  0.13593343  0.16141518     0.37000
N525        N  0.36435150  0.11701403  0.15159949    -0.89600
H526        H  0.32588595  0.13655975  0.10823101     0.18100
H527        H  0.32118151  0.17057718  0.23360309     0.18100
N528        N  0.28239553  0.18971845  0.19035966    -0.88600
H529        H  0.36271337  0.11206847  0.12432363     0.35500
H530        H  0.35097116  0.09075365  0.16381513     0.40600
H531        H  0.29543203  0.21588083  0.17797246     0.40200
H532        H  0.28419805  0.19483735  0.21761405     0.35100
C533        C  0.34025072  0.00650121  0.22409520    -0.26700
C534        C  0.35618299  0.02197778  0.25682712    -0.14700
C535        C  0.35225031  0.99796717  0.28514972     0.35900
C536        C  0.33186899  0.95908455  0.28043423    -0.26100
C537        C  0.31430045  0.94337585  0.24814859    -0.15400
C538        C  0.31905167  0.96752567  0.21958500     0.37000
N539        N  0.30230153  0.95270875  0.18592859    -0.89600
H540        H  0.34302351  0.02473253  0.20229818     0.18100
H541        H  0.32867533  0.94109389  0.30257244     0.18100
N542        N  0.36896513  0.01237300  0.31889780    -0.88600
H543        H  0.32359779  0.96277333  0.16679424     0.35500
H544        H  0.28442572  0.96309381  0.18000724     0.40600
H545        H  0.35773304  0.02814264  0.32953284     0.40200
H546        H  0.39773761  0.02995390  0.31496495     0.35100
C547        C  0.15765042  0.81830219  0.37723421    -0.26700
C548        C  0.12027528  0.80529203  0.36782653    -0.14700
C549        C  0.11085589  0.80257682  0.33157430     0.35900
C550        C  0.13894917  0.81251574  0.30569397    -0.26100
C551        C  0.17619678  0.82486230  0.31514690    -0.15400
C552        C  0.18563153  0.82843352  0.35136634     0.37000
N553        N  0.22370997  0.84298721  0.36210787    -0.89600
H554        H  0.16547996  0.82160352  0.40489420     0.18100
H555        H  0.13140746  0.80934679  0.27797330     0.18100
N556        N  0.07275598  0.78916384  0.32108456    -0.88600
H557        H  0.22496975  0.82291727  0.37792762     0.35500
H558        H  0.23144172  0.86681904  0.37761328     0.40600
H559        H  0.05703157  0.76118370  0.32893602     0.40200
H560        H  0.07073188  0.78938348  0.29352896     0.35100
C561        C  0.94592972  0.62856590  0.39174453    -0.26700
C562        C  0.93510756  0.60509355  0.42155213    -0.14700
C563        C  0.94417899  0.62118181  0.45561308     0.35900
C564        C  0.96594107  0.66036890  0.45897929    -0.26100
C565        C  0.97783943  0.68381588  0.42909093    -0.15400
C566        C  0.96668789  0.66759469  0.39515787     0.37000
N567        N  0.97771437  0.68982041  0.36364065    -0.89600
H568        H  0.93898624  0.61637495  0.36546608     0.18100
H569        H  0.97420006  0.67271329  0.48508679     0.18100
N570        N  0.93329851  0.59770788  0.48646481    -0.88600
H571        H  0.00693387  0.70594958  0.36299965     0.35500
H572        H  0.96656418  0.70770460  0.36458417     0.40600
H573        H  0.90411274  0.58437806  0.48857437     0.40200
H574        H  0.94381718  0.61392566  0.50935351     0.35100
C575        C  0.97200278  0.48574083  0.54295098    -0.26700
C576        C  0.99752112  0.47415058  0.53278012    -0.14700
C577        C  0.00187547  0.46873602  0.49649769     0.35900
C578        C  0.98136849  0.47557076  0.47120724    -0.26100
C579        C  0.95586613  0.48714341  0.48127183    -0.15400
C580        C  0.95120145  0.49228412  0.51758161     0.37000
N581        N  0.92598379  0.50484230  0.52882195    -0.89600
H582        H  0.96862410  0.49040827  0.57066984     0.18100
H583        H  0.98475215  0.47076934  0.44352661     0.18100
N584        N  0.02631495  0.45525025  0.48516678    -0.88600
H585        H  0.94132631  0.52988193  0.54283491     0.35500
H586        H  0.90636499  0.48489382  0.54618980     0.40600
H587        H  0.04604755  0.47477538  0.46759001     0.40200
H588        H  0.01037607  0.43015172  0.47140106     0.35100
C589        C  0.99378551  0.29797872  0.54991443    -0.26700
C590        C  0.98182218  0.27477503  0.57990679    -0.14700
C591        C  0.98820485  0.29084488  0.61389452     0.35900
C592        C  0.00593522  0.32991795  0.61720282    -0.26100
C593        C  0.01773390  0.35328189  0.58730006    -0.15400
C594        C  0.01214960  0.33720680  0.55323050     0.37000
N595        N  0.02319322  0.36044877  0.52220975    -0.89600
H596        H  0.98842292  0.28535582  0.52381022     0.18100
H597        H  0.00995105  0.34222669  0.64333940     0.18100
N598        N  0.97530821  0.26741834  0.64481083    -0.88600
H599        H  0.01488026  0.34398133  0.49929333     0.35500
H600        H  0.05245649  0.37560297  0.52148262     0.40600
H601        H  0.94603947  0.25211493  0.64398966     0.40200
H602        H  0.98234696  0.28370812  0.66781563     0.35100
C603        C  0.83269637  0.15631437  0.70745520    -0.26700
C604        C  0.79469126  0.14092429  0.69909414    -0.14700
C605        C  0.78337419  0.13167577  0.66356661     0.35900
C606        C  0.81017689  0.13897863  0.63702330    -0.26100
C607        C  0.84828132  0.15491045  0.64524867    -0.15400
C608        C  0.85952581  0.16346846  0.68090292     0.37000
N609        N  0.89827116  0.18038868  0.69019306    -0.89600
H610        H  0.84182919  0.16391008  0.73457434     0.18100
H611        H  0.80095382  0.13138424  0.60992606     0.18100
N612        N  0.74453770  0.11404620  0.65441456    -0.88600
H613        H  0.90107088  0.16305538  0.70853430     0.17500
H614        H  0.90614247  0.20601240  0.70254665     0.40600
H615        H  0.73702505  0.08832219  0.64244980     0.40200
H616        H  0.74129282  0.13084818  0.63576937     0.35100
C617        C  0.63926021  0.00161720  0.78821061    -0.26700
C618        C  0.65350442  0.02473011  0.75822182    -0.14700
C619        C  0.64657927  0.00832250  0.72430861     0.35900
C620        C  0.62705250  0.96906427  0.72123167    -0.26100
C621        C  0.61377001  0.94589353  0.75126474    -0.15400
C622        C  0.61923219  0.96233773  0.78509974     0.37000
N623        N  0.60596912  0.93923106  0.81618404    -0.89600
H624        H  0.64471661  0.01432044  0.81426904     0.18100
H625        H  0.62275845  0.95639316  0.69521964     0.18100
N626        N  0.66138809  0.03139937  0.69333936    -0.88600
H627        H  0.61216336  0.95576257  0.83896179     0.35500
H628        H  0.62078864  0.92481769  0.81809312     0.40600
H629        H  0.64718598  0.04632230  0.69052047     0.40200
H630        H  0.65554836  0.01483282  0.67062640     0.35100
C631        C  0.65846283  0.81507577  0.80212728    -0.26700
C632        C  0.63125956  0.82440154  0.81228798    -0.14700
C633        C  0.62360918  0.82536789  0.84877955     0.35900
C634        C  0.64268355  0.81618050  0.87396794    -0.26100
C635        C  0.66965720  0.80652021  0.86375182    -0.15400
C636        C  0.67751759  0.80589590  0.82728329     0.37000
N637        N  0.70439564  0.79541169  0.81574913    -0.89600
H638        H  0.66419341  0.81385242  0.77425801     0.18100
H639        H  0.63707715  0.81751339  0.90185472     0.18100
N640        N  0.59689009  0.83608530  0.86027312    -0.88600
H641        H  0.70725890  0.79692125  0.78818947     0.35500
H642        H  0.69379643  0.76732087  0.82253110     0.40600
H643        H  0.60753399  0.86411704  0.85326568     0.40200
H644        H  0.59423017  0.83486611  0.88785617     0.35100
C645        C  0.66350172  0.63084882  0.88654694    -0.26700
C646        C  0.65313177  0.60733699  0.91630667    -0.14700
C647        C  0.66282267  0.62340279  0.95036566     0.35900
C648        C  0.68143352  0.66266039  0.95391972    -0.26100
C649        C  0.69075827  0.68606976  0.92415199    -0.15400
C650        C  0.68244624  0.67003198  0.89005989     0.37000
N651        N  0.69098226  0.69338340  0.85931191    -0.89600
H652        H  0.65586938  0.61849427  0.86039556     0.18100
H653        H  0.68784768  0.67509355  0.98010889     0.18100
N654        N  0.65221261  0.59991489  0.98120754    -0.88600
H655        H  0.68089866  0.67703097  0.83644228     0.35500
H656        H  0.72012226  0.70865842  0.85657168     0.40600
H657        H  0.62294404  0.58516139  0.98268292     0.40200
H658        H  0.66159709  0.61618467  0.00419065     0.35100
C659        C  0.52408624  0.49343626  0.01396151    -0.26700
C660        C  0.51363319  0.49294194  0.97850088    -0.14700
C661        C  0.47716520  0.48608554  0.97118160     0.35900
C662        C  0.45212572  0.47940261  0.99929802    -0.26100
C663        C  0.46249044  0.47981019  0.03477122    -0.15400
C664        C  0.49919071  0.48703676  0.04197875     0.37000
N665        N  0.51242154  0.48871694  0.07725675    -0.89600
H666        H  0.55197073  0.49872241  0.02012592     0.18100
H667        H  0.42414543  0.47388467  0.99328600     0.18100
N668        N  0.46512139  0.48485588  0.93534043    -0.88600
H669        H  0.49619661  0.46262805  0.08926775     0.35500
H670        H  0.50973039  0.50910271  0.09146999     0.40600
H671        H  0.47940366  0.51221296  0.92556407     0.40200
H672        H  0.43664421  0.47655194  0.93459041     0.35100
C673        C  0.21189898  0.00944758  0.03549582    -0.26700
C674        C  0.17760313  0.98999093  0.01784070    -0.14700
C675        C  0.15167995  0.00301455  0.02080190     0.35900
C676        C  0.16196372  0.03684022  0.03829191    -0.26100
C677        C  0.19793360  0.05844580  0.05238000    -0.15400
C678        C  0.22247261  0.04357593  0.05269001     0.37000
N679        N  0.25887578  0.06307031  0.06877465    -0.89600
H680        H  0.23183391  0.99958581  0.03369032     0.18100
H681        H  0.14283541  0.04773833  0.03829100     0.18100
N682        N  0.11504114  0.98291523  0.00561149    -0.88600
H683        H  0.25963759  0.04558011  0.08829080     0.35500
H684        H  0.26297335  0.08706427  0.08208691     0.40600
H685        H  0.10174426  0.95551653  0.01529226     0.40200
H686        H  0.11742399  0.98213488  0.97813043     0.35100
C687        C  0.59148721  0.08417945  0.88057561    -0.26700
C688        C  0.57796352  0.10936718  0.87918262    -0.14700
C689        C  0.60029700  0.14492531  0.86389384     0.35900
C690        C  0.63474927  0.15353656  0.84800897    -0.26100
C691        C  0.64704522  0.12724046  0.84728235    -0.15400
C692        C  0.62594377  0.09280861  0.86497757     0.37000
N693        N  0.63776319  0.06534955  0.86409532    -0.89600
H694        H  0.57397583  0.05673297  0.89210185     0.18100
H695        H  0.65091471  0.17986827  0.83414734     0.18100
N696        N  0.58678244  0.17100129  0.86235467    -0.88600
H697        H  0.61789411  0.04060957  0.87644209     0.35500
H698        H  0.66217571  0.07580541  0.87909639     0.40600
H699        H  0.56323065  0.15937157  0.84605644     0.40200
H700        H  0.60666574  0.19592400  0.85026941     0.35100
C701        C  0.33545577  0.97852484  0.90736948    -0.26700
C702        C  0.35654790  0.01659484  0.91682280    -0.14700
C703        C  0.33730929  0.03511439  0.92890282     0.35900
C704        C  0.29798767  0.01529189  0.93126632    -0.26100
C705        C  0.27742281  0.97719645  0.92235287    -0.15400
C706        C  0.29628327  0.95870788  0.91008045     0.37000
N707        N  0.27545733  0.91971213  0.90057691    -0.89600
H708        H  0.34961803  0.96388406  0.89800586     0.18100
H709        H  0.28348318  0.02940496  0.94115458     0.18100
N710        N  0.35666341  0.07389811  0.93852610    -0.88600
H711        H  0.29350476  0.91016110  0.89220774     0.35500
H712        H  0.25876566  0.91718628  0.87886453     0.40600
H713        H  0.37298529  0.08948508  0.91697259     0.40200
H714        H  0.37416569  0.07764005  0.95987563     0.35100
C715        C  0.09565140  0.62492707  0.64273171    -0.26700
C716        C  0.12731993  0.64095520  0.66452537    -0.14700
C717        C  0.14945149  0.62373187  0.66703415     0.35900
C718        C  0.13824042  0.58959576  0.64974921    -0.26100
C719        C  0.10467524  0.57187660  0.63085516    -0.15400
C720        C  0.08359739  0.59000459  0.62643468     0.37000
N721        N  0.04960707  0.57244949  0.60619417    -0.89600
H722        H  0.07850060  0.63799911  0.64092397     0.18100
H723        H  0.15439103  0.57562275  0.65323915     0.18100
N724        N  0.18253942  0.64012078  0.68828052    -0.88600
H725        H  0.03810506  0.58999368  0.60462173     0.35500
H726        H  0.03002970  0.54857888  0.61987645     0.40600
H727        H  0.20516251  0.64471112  0.67209570     0.40200
H728        H  0.17934691  0.62078953  0.70774743     0.35100
C729        C  0.15020163  0.82566059  0.80207880    -0.26700
C730        C  0.13907383  0.78861340  0.81132507    -0.14700
C731        C  0.13403338  0.77856578  0.84749098     0.35900
C732        C  0.14162240  0.80575335  0.87354143    -0.26100
C733        C  0.15382235  0.84306017  0.86445684    -0.15400
C734        C  0.15790396  0.85306923  0.82817188     0.37000
N735        N  0.17065975  0.89111422  0.81785246    -0.89600
H736        H  0.15428863  0.83363627  0.77441946     0.18100
H737        H  0.13737581  0.79737788  0.90110358     0.18100
N738        N  0.12065264  0.74059292  0.85799825    -0.88600
H739        H  0.17159013  0.89358126  0.79028243     0.35500
H740        H  0.19822250  0.90741929  0.82665488     0.40600
H741        H  0.09583524  0.73144669  0.87245963     0.40200
H742        H  0.14051359  0.74016504  0.87475086     0.35100
C743        C  0.70591000  0.53749188  0.78592886    -0.26700
C744        C  0.72234624  0.51531176  0.79215057    -0.14700
C745        C  0.70302976  0.48275767  0.81321046     0.35900
C746        C  0.66964924  0.47538596  0.83015147    -0.26100
C747        C  0.65509812  0.49962438  0.82673170    -0.15400
C748        C  0.67242228  0.53004925  0.80305180     0.37000
N749        N  0.65784463  0.55503226  0.79870551    -0.89600
H750        H  0.72086239  0.56245817  0.76984756     0.18100
H751        H  0.65628590  0.45179458  0.84811105     0.18100
N752        N  0.71781559  0.45841902  0.82061417    -0.88600
H753        H  0.67366246  0.57566259  0.77999303     0.35500
H754        H  0.66108083  0.56896610  0.82276069     0.40600
H755        H  0.74297436  0.46661293  0.80724354     0.40200
H756        H  0.69869350  0.43182813  0.81097939     0.35100
C757        C  0.96696767  0.61717131  0.78680675    -0.26700
C758        C  0.94383329  0.60745883  0.75695115    -0.14700
C759        C  0.96030509  0.61753968  0.72299497     0.35900
C760        C  0.99964203  0.63861388  0.71979789    -0.26100
C761        C  0.02278789  0.64905764  0.74980102    -0.15400
C762        C  0.00617985  0.63733395  0.78346510     0.37000
N763        N  0.02895841  0.64710055  0.81446432    -0.89600
H764        H  0.95448001  0.60939971  0.81298128     0.18100
H765        H  0.01232024  0.64727866  0.69378943     0.18100
N766        N  0.93709938  0.60738836  0.69207178    -0.88600
H767        H  0.02278594  0.62234025  0.82749811     0.35500
H768        H  0.02144583  0.66259010  0.83122754     0.40600
H769        H  0.92181823  0.62140468  0.69330787     0.40200
H770        H  0.95360543  0.61673718  0.66914192     0.35100
C771        C  0.92176079  0.74651988  0.55612328    -0.26700
C772        C  0.90964478  0.77288171  0.55425612    -0.14700
C773        C  0.93409451  0.80879824  0.54012988     0.35900
C774        C  0.96784970  0.81558231  0.52440716    -0.26100
C775        C  0.97784158  0.78765216  0.52277606    -0.15400
C776        C  0.95582166  0.75361859  0.54069296     0.37000
N777        N  0.96618397  0.72507507  0.54007592    -0.89600
H778        H  0.90320525  0.71917136  0.56739543     0.18100
H779        H  0.98516042  0.84203006  0.51104289     0.18100
N780        N  0.92497777  0.83819791  0.53921982    -0.88600
H781        H  0.94597664  0.70100221  0.55309329     0.35500
H782        H  0.99086278  0.73507912  0.55459596     0.40600
H783        H  0.89912529  0.83018152  0.55102680     0.40200
H784        H  0.92314458  0.84406106  0.51266992     0.35100
C785        C  0.81396944  0.63476092  0.63526573    -0.26700
C786        C  0.81217136  0.66665539  0.64545428    -0.14700
C787        C  0.81767826  0.67762829  0.68145880     0.35900
C788        C  0.82383655  0.65624324  0.70627664    -0.26100
C789        C  0.82474689  0.62387964  0.69624730    -0.15400
C790        C  0.82032973  0.61346925  0.66011704     0.37000
N791        N  0.82242796  0.58146617  0.64828676    -0.89600
H792        H  0.81057214  0.62618054  0.60775083     0.18100
H793        H  0.82734718  0.66492453  0.73376512     0.18100
N794        N  0.81686387  0.71031558  0.69327812    -0.88600
H795        H  0.84400897  0.59040240  0.62952521     0.35500
H796        H  0.79723361  0.56309528  0.63578160     0.40600
H797        H  0.84255505  0.72838743  0.70515550     0.40200
H798        H  0.79584281  0.70217097  0.71253569     0.35100
C799        C  0.62818215  0.67587003  0.58824083    -0.26700
C800        C  0.60903821  0.63697031  0.59350636    -0.14700
C801        C  0.62945222  0.61780810  0.59479281     0.35900
C802        C  0.66863235  0.63810907  0.59157540    -0.26100
C803        C  0.68785455  0.67707571  0.58706960    -0.15400
C804        C  0.66751322  0.69618240  0.58502857     0.37000
N805        N  0.68676429  0.73589052  0.57896068    -0.89600
H806        H  0.61244311  0.69047266  0.58708378     0.18100
H807        H  0.68433787  0.62344157  0.59243957     0.18100
N808        N  0.61027974  0.57775436  0.59873884    -0.88600
H809        H  0.66770115  0.74562928  0.57811189     0.35500
H810        H  0.69929234  0.74075213  0.55389851     0.40600
H811        H  0.62940467  0.56807826  0.59932632     0.40200
H812        H  0.59382685  0.56600955  0.57624145     0.35100
C813        C  0.53782418  0.67382587  0.70208489    -0.26700
C814        C  0.50703770  0.65813909  0.67919286    -0.14700
C815        C  0.48435350  0.67471064  0.67654341     0.35900
C816        C  0.49449461  0.70830588  0.69433344    -0.26100
C817        C  0.52732612  0.72592338  0.71424607    -0.15400
C818        C  0.54846639  0.70798711  0.71942410     0.37000
N819        N  0.58158701  0.72552570  0.74084013    -0.89600
H820        H  0.55519536  0.66102912  0.70426826     0.18100
H821        H  0.47820087  0.72205581  0.69038147     0.18100
N822        N  0.45170151  0.65816927  0.65474233    -0.88600
H823        H  0.59412216  0.70886715  0.74181372     0.35500
H824        H  0.57322919  0.72709704  0.76671268     0.40600
H825        H  0.45493568  0.67762957  0.63541187     0.40200
H826        H  0.42871971  0.65311951  0.67061212     0.35100
C827        C  0.48819741  0.44885297  0.51618916    -0.26700
C828        C  0.47522215  0.45112462  0.48246125    -0.14700
C829        C  0.46793082  0.48050058  0.47552090     0.35900
C830        C  0.47344758  0.50649387  0.50211221    -0.26100
C831        C  0.48649372  0.50428667  0.53576768    -0.15400
C832        C  0.49413628  0.47516486  0.54266738     0.37000
N833        N  0.50865893  0.47248148  0.57616553    -0.89600
H834        H  0.49449999  0.42688688  0.52207000     0.18100
H835        H  0.46732089  0.52856969  0.49617053     0.18100
N836        N  0.45504310  0.48436051  0.44155217    -0.88600
H837        H  0.53442667  0.47387614  0.57172599     0.35500
H838        H  0.49022842  0.44627512  0.58704249     0.40600
H839        H  0.47433247  0.51067622  0.43141831     0.40200
H840        H  0.42940958  0.48348950  0.44507154     0.35100
C841        C  0.48074615  0.25889882  0.31591975    -0.26700
C842        C  0.44829371  0.24180587  0.29539540    -0.14700
C843        C  0.42691797  0.25954861  0.29086996     0.35900
C844        C  0.43675306  0.29276927  0.30947360    -0.26100
C845        C  0.46677311  0.30754777  0.33323142    -0.15400
C846        C  0.48990203  0.29142241  0.33527634     0.37000
N847        N  0.52174277  0.30708920  0.35815681    -0.89600
H848        H  0.49721901  0.24530631  0.31932816     0.18100
H849        H  0.41903418  0.30522177  0.30777892     0.18100
N850        N  0.39398435  0.24235709  0.26917669    -0.88600
H851        H  0.54547118  0.31363988  0.34279822     0.35500
H852        H  0.51819686  0.28658899  0.37642610     0.40600
H853        H  0.40262853  0.24181105  0.24318151     0.40200
H854        H  0.38102607  0.25864988  0.26895010     0.35100
C855        C  0.01013753  0.20497561  0.47276793    -0.26700
C856        C  0.99128372  0.17099160  0.49113990    -0.14700
C857        C  0.00461093  0.14553042  0.48895454     0.35900
C858        C  0.03819590  0.15561952  0.47083730    -0.26100
C859        C  0.05924362  0.19130470  0.45588289    -0.15400
C860        C  0.04421193  0.21566443  0.45533458     0.37000
N861        N  0.06358408  0.25204594  0.43903580    -0.89600
H862        H  0.00000574  0.22469611  0.47441479     0.18100
H863        H  0.04948754  0.13683248  0.47128745     0.18100
N864        N  0.98500913  0.11016268  0.50666153    -0.88600
H865        H  0.04604177  0.25271006  0.41956448     0.35500
H866        H  0.08771467  0.25634030  0.42569973     0.40600
H867        H  0.00325208  0.10874500  0.52484914     0.40200
H868        H  0.97812422  0.08907373  0.48781521     0.35100
C869        C  0.33699414  0.30448377  0.38934896    -0.26700
C870        C  0.35868596  0.30987275  0.41969126    -0.14700
C871        C  0.34038504  0.29416898  0.45208836     0.35900
C872        C  0.30090348  0.27544739  0.45363761    -0.26100
C873        C  0.27940234  0.27167922  0.42350019    -0.15400
C874        C  0.29783516  0.28620117  0.39078276     0.37000
N875        N  0.27833827  0.28490333  0.35888617    -0.89600
H876        H  0.35072322  0.31607293  0.36421858     0.18100
H877        H  0.28674801  0.26443226  0.47872623     0.18100
N878        N  0.36169862  0.29895931  0.48356315    -0.88600
H879        H  0.28726422  0.31251297  0.35142524     0.35500
H880        H  0.24949706  0.27227606  0.36274468     0.40600
H881        H  0.37533201  0.28348842  0.48023637     0.40200
H882        H  0.34387965  0.28740826  0.50544301     0.35100
C883        C  0.25942297  0.42213230  0.21932843    -0.26700
C884        C  0.24500248  0.44638332  0.21547591    -0.14700
C885        C  0.26586620  0.48021060  0.19685899     0.35900
C886        C  0.29950188  0.48792759  0.18039458    -0.26100
C887        C  0.31262489  0.46235249  0.18206728    -0.15400
C888        C  0.29325541  0.42985234  0.20292669     0.37000
N889        N  0.30602613  0.40317658  0.20460242    -0.89600
H890        H  0.24296942  0.39591206  0.23331365     0.18100
H891        H  0.31424072  0.51288516  0.16426722     0.18100
N892        N  0.25214137  0.50569189  0.19203493    -0.88600
H893        H  0.28726000  0.37968195  0.21925869     0.35500
H894        H  0.33122256  0.41570747  0.21853677     0.40600
H895        H  0.24795314  0.51410464  0.21700119     0.40200
H896        H  0.22628385  0.49151403  0.17926050     0.35100
C897        C  0.15229633  0.34794511  0.34605351    -0.26700
C898        C  0.14960225  0.33753209  0.31018577    -0.14700
C899        C  0.15355483  0.30639741  0.30109258     0.35900
C900        C  0.16001432  0.28661532  0.32768446    -0.26100
C901        C  0.16259060  0.29701912  0.36357225    -0.15400
C902        C  0.15854245  0.32809849  0.37261622     0.37000
N903        N  0.15985525  0.33930138  0.40878033    -0.89600
H904        H  0.14918819  0.37159759  0.35385593     0.18100
H905        H  0.16288048  0.26278367  0.32002432     0.18100
N906        N  0.15134309  0.29476042  0.26497359    -0.88600
H907        H  0.13446482  0.33808545  0.41493969     0.35500
H908        H  0.18128003  0.36714658  0.41115632     0.40600
H909        H  0.12969391  0.26698758  0.26303656     0.40200
H910        H  0.17647509  0.29560965  0.25834173     0.35100
C911        C  0.96664153  0.29107020  0.26393688    -0.26700
C912        C  0.94646813  0.31019874  0.26520086    -0.14700
C913        C  0.96636790  0.34983896  0.26617273     0.35900
C914        C  0.00571134  0.36933227  0.26395372    -0.26100
C915        C  0.02559441  0.34997022  0.26071905    -0.15400
C916        C  0.00588559  0.31045105  0.26178085     0.37000
N917        N  0.02592531  0.29015074  0.26062264    -0.89600
H918        H  0.95161768  0.26072324  0.26421133     0.18100
H919        H  0.02069638  0.39967038  0.26361932     0.18100
N920        N  0.94749645  0.37090269  0.27028652    -0.88600
H921        H  0.00734992  0.26128927  0.26157186     0.35500
H922        H  0.04224816  0.29701100  0.28345679     0.40600
H923        H  0.93120935  0.36195420  0.29338214     0.40200
H924        H  0.92979040  0.36538693  0.24870382     0.35100
C925        C  0.81361577  0.33459772  0.34379830    -0.26700
C926        C  0.83741322  0.31963715  0.34803313    -0.14700
C927        C  0.86658491  0.33581446  0.37301473     0.35900
C928        C  0.87390906  0.36919852  0.39019276    -0.26100
C929        C  0.85190375  0.38572714  0.38355058    -0.15400
C930        C  0.82054142  0.36733456  0.36132632     0.37000
N931        N  0.79714066  0.38297457  0.35386508    -0.89600
H932        H  0.79091893  0.32213459  0.32490526     0.18100
H933        H  0.89813378  0.38355923  0.40717750     0.18100
N934        N  0.89051084  0.32021410  0.37857400    -0.88600
H935        H  0.81374249  0.40945685  0.34267399     0.35500
H936        H  0.78604154  0.38610442  0.37778721     0.40600
H937        H  0.87426440  0.29407681  0.39052537     0.40200
H938        H  0.91165806  0.33654003  0.39655798     0.35100
C939        C  0.82048393  0.15595984  0.13560801    -0.26700
C940        C  0.80831704  0.11886561  0.14559698    -0.14700
C941        C  0.80525176  0.10991061  0.18202083     0.35900
C942        C  0.81433101  0.13817467  0.20742735    -0.26100
C943        C  0.82606168  0.17521976  0.19747114    -0.15400
C944        C  0.82983820  0.18428931  0.16100715     0.37000
N945        N  0.84364724  0.22226013  0.14977059    -0.89600
H946        H  0.82377428  0.16317414  0.10776378     0.18100
H947        H  0.81111989  0.13089062  0.23524415     0.18100
N948        N  0.79235396  0.07208024  0.19319785    -0.88600
H949        H  0.84430507  0.22402190  0.12214735     0.35500
H950        H  0.87141458  0.23802618  0.15818818     0.40600
H951        H  0.76450674  0.05580840  0.18516224     0.40200
H952        H  0.79222596  0.07037574  0.22080718     0.35100
C953        C  0.80576278  0.92616586  0.97481788    -0.26700
C954        C  0.77040161  0.90527852  0.95935739    -0.14700
C955        C  0.74609649  0.92031916  0.95800844     0.35900
C956        C  0.75625339  0.95410481  0.97546644    -0.26100
C957        C  0.78981671  0.97282949  0.99431682    -0.15400
C958        C  0.81547085  0.95965437  0.99269633     0.37000
N959        N  0.85066346  0.97938152  0.01057087    -0.89600
H960        H  0.82456752  0.91489665  0.97571302     0.18100
H961        H  0.73648087  0.96420539  0.97655586     0.18100
N962        N  0.71032039  0.90130311  0.94068885    -0.88600
H963        H  0.87200202  0.98638748  0.99186426     0.35500
H964        H  0.85200363  0.96120688  0.02893552     0.40600
H965        H  0.70656891  0.87752374  0.92718611     0.40200
H966        H  0.71038774  0.91925147  0.92120348     0.35100
C967        C  0.36739464  0.87016667  0.12046166    -0.26700
C968        C  0.38581119  0.85016066  0.12805615    -0.14700
C969        C  0.36913884  0.81964209  0.15183046     0.35900
C970        C  0.33616224  0.81208852  0.16961551    -0.26100
C971        C  0.31952684  0.83428116  0.16447636    -0.15400
C972        C  0.33434727  0.86260840  0.13850262     0.37000
N973        N  0.31776306  0.88561866  0.13265361    -0.89600
H974        H  0.38054238  0.89378431  0.10252039     0.18100
H975        H  0.32476520  0.79012080  0.18939259     0.18100
N976        N  0.38634732  0.79784190  0.16095053    -0.88600
H977        H  0.33194737  0.90494417  0.11244879     0.35500
H978        H  0.32149344  0.90122819  0.15569142     0.40600
H979        H  0.41078775  0.80583829  0.14637295     0.40200
H980        H  0.36775738  0.77006257  0.15391687     0.35100
C981        C  0.49674400  0.01826345  0.00493953    -0.26700
C982        C  0.47775544  0.00047377  0.97366323    -0.14700
C983        C  0.46362503  0.96156503  0.96990505     0.35900
C984        C  0.46909552  0.94166278  0.99728112    -0.26100
C985        C  0.48783876  0.95951010  0.02869743    -0.15400
C986        C  0.50208174  0.99846645  0.03228174     0.37000
N987        N  0.52230074  0.01807726  0.06345183    -0.89600
H988        H  0.50805344  0.04813769  0.00802770     0.18100
H989        H  0.45780851  0.91177567  0.99435713     0.18100
N990        N  0.44317185  0.94217280  0.93877067    -0.88600
H991        H  0.53004984  0.04636717  0.06224740     0.35500
H992        H  0.54721602  0.01719036  0.06374865     0.40600
H993        H  0.41837559  0.94333602  0.93861614     0.40200
H994        H  0.43522176  0.91382268  0.93995311     0.35100
C995        C  0.62584319  0.92455163  0.09160389    -0.26700
C996        C  0.60722878  0.94539546  0.09231989    -0.14700
C997        C  0.62845196  0.98478141  0.09052615     0.35900
C998        C  0.66753951  0.00253665  0.08862621    -0.26100
C999        C  0.68642253  0.98210925  0.08778222    -0.15400
C1000       C  0.66525574  0.94254452  0.08943456     0.37000
N1001       N  0.68280549  0.92006962  0.08790983    -0.89600
H1002       H  0.60975716  0.89427905  0.09317464     0.18100
H1003       H  0.68349465  0.03282663  0.08705236     0.18100
N1004       N  0.61008581  0.00666688  0.08964907    -0.88600
H1005       H  0.70091936  0.92712961  0.10941020     0.35500
H1006       H  0.69862868  0.92646549  0.06456466     0.40600
H1007       H  0.59499930  0.00009439  0.06605953     0.40200
H1008       H  0.62967666  0.03527344  0.08859270     0.35100
C1009       C  0.86128300  0.81186188  0.03466503    -0.26700
C1010       C  0.84754792  0.77813956  0.05311681    -0.14700
C1011       C  0.80860292  0.75392920  0.05620347     0.35900
C1012       C  0.78395986  0.76202264  0.03800148    -0.26100
C1013       C  0.79797101  0.79345344  0.01595584    -0.15400
C1014       C  0.83672351  0.81953798  0.01574617     0.37000
N1015       N  0.85128786  0.85299325  0.99503034    -0.89600
H1016       H  0.89124062  0.83059777  0.03226208     0.18100
H1017       H  0.75419398  0.74197422  0.03856357     0.18100
N1018       N  0.79425234  0.71999275  0.07615489    -0.88600
H1019       H  0.87057201  0.85304801  0.97680935     0.35500
H1020       H  0.86567820  0.87589735  0.01196898     0.40600
H1021       H  0.77858745  0.69748224  0.05914596     0.40200
H1022       H  0.77616237  0.72017481  0.09564792     0.35100
C1023       C  0.00675035  0.78746335  0.97744186    -0.26700
C1024       C  0.98929252  0.80264183  0.99833893    -0.14700
C1025       C  0.00396992  0.84180111  0.99880170     0.35900
C1026       C  0.03810460  0.86526221  0.98145582    -0.26100
C1027       C  0.05770553  0.85011927  0.96416478    -0.15400
C1028       C  0.04125028  0.81099529  0.96085303     0.37000
N1029       N  0.06038562  0.79519200  0.94192587    -0.89600
H1030       H  0.99532752  0.75742689  0.97645978     0.18100
H1031       H  0.05076472  0.89538843  0.98369588     0.18100
N1032       N  0.98495123  0.85753237  0.01828109    -0.88600
H1033       H  0.04288327  0.77834825  0.92163628     0.35500
H1034       H  0.06462594  0.77800164  0.95928556     0.40600
H1035       H  0.95899355  0.84823108  0.00626998     0.40200
H1036       H  0.99957786  0.88673018  0.01628950     0.35100
C1037       C  0.09257723  0.45378109  0.14716985    -0.26700
C1038       C  0.12369170  0.46928968  0.16966465    -0.14700
C1039       C  0.14623756  0.50857127  0.17195156     0.35900
C1040       C  0.13631140  0.53152907  0.15323692    -0.26100
C1041       C  0.10337965  0.51605729  0.13342329    -0.15400
C1042       C  0.08174006  0.47667008  0.12940778     0.37000
N1043       N  0.04790670  0.45896779  0.10892159    -0.89600
H1044       H  0.07501751  0.42363397  0.14533482     0.18100
H1045       H  0.15283169  0.56157656  0.15653760     0.18100
N1046       N  0.17846972  0.52529449  0.19434137    -0.88600
H1047       H  0.05170922  0.44366435  0.08876446     0.35500
H1048       H  0.04319069  0.47866884  0.09624348     0.40600
H1049       H  0.17475194  0.54199943  0.21303869     0.40200
H1050       H  0.20180593  0.54275792  0.17876040     0.35100
C1051       C  0.98568722  0.68228185  0.12294832    -0.26700
C1052       C  0.98201768  0.69295500  0.08879104    -0.14700
C1053       C  0.99932640  0.68515923  0.05998980     0.35900
C1054       C  0.01880599  0.66589252  0.06577689    -0.26100
C1055       C  0.02047331  0.65309505  0.09964626    -0.15400
C1056       C  0.00450946  0.66219866  0.12870515     0.37000
N1057       N  0.00713003  0.65066843  0.16391433    -0.89600
H1058       H  0.97256502  0.68836532  0.14501716     0.18100
H1059       H  0.03119010  0.65937169  0.04338037     0.18100
N1060       N  0.99778872  0.69667923  0.02463389    -0.88600
H1061       H  0.99356345  0.65913723  0.18214769     0.35500
H1062       H  0.03546111  0.66462204  0.17075698     0.40600
H1063       H  0.00828770  0.72558736  0.02480325     0.40200
H1064       H  0.96990492  0.68329652  0.01645113     0.35100
C1065       C  0.19352718  0.70136295  0.20691674    -0.26700
C1066       C  0.17933891  0.72125046  0.22522022    -0.14700
C1067       C  0.14005848  0.70563044  0.22874789     0.35900
C1068       C  0.11610354  0.67280810  0.21016193    -0.26100
C1069       C  0.13056741  0.65563700  0.18794849    -0.15400
C1070       C  0.16963878  0.66897298  0.18795175     0.37000
N1071       N  0.18597435  0.65075026  0.16839686    -0.89600
H1072       H  0.22356922  0.71299534  0.20444307     0.18100
H1073       H  0.08619338  0.66243136  0.21094343     0.18100
N1074       N  0.12371194  0.72348470  0.24920817    -0.88600
H1075       H  0.18163854  0.65201950  0.14138736     0.35500
H1076       H  0.17275338  0.62275612  0.17627165     0.40600
H1077       H  0.14420612  0.74681111  0.26274421     0.40200
H1078       H  0.10682163  0.70458332  0.26876036     0.35100
C1079       C  0.54460581  0.82562664  0.22378937    -0.26700
C1080       C  0.52241881  0.78665334  0.22029989    -0.14700
C1081       C  0.48885105  0.77126116  0.20106393     0.35900
C1082       C  0.48000050  0.79532716  0.18267200    -0.26100
C1083       C  0.50389090  0.83431988  0.18360195    -0.15400
C1084       C  0.53526889  0.84976246  0.20612400     0.37000
N1085       N  0.55925441  0.88965719  0.20855019    -0.89600
H1086       H  0.57041041  0.83719505  0.23868736     0.18100
H1087       H  0.45564442  0.78353582  0.16571832     0.18100
N1088       N  0.46533577  0.73131124  0.19822770    -0.88600
H1089       H  0.58215084  0.89625736  0.22482039     0.35500
H1090       H  0.54395873  0.90044122  0.22117193     0.40600
H1091       H  0.48024799  0.72094121  0.18420746     0.40200
H1092       H  0.44151971  0.72459240  0.18331964     0.35100
C1093       C  0.46221693  0.62949301  0.17341309    -0.26700
C1094       C  0.50122773  0.64716142  0.16827933    -0.14700
C1095       C  0.51586026  0.63246430  0.14292172     0.35900
C1096       C  0.49155306  0.59796171  0.12655107    -0.26100
C1097       C  0.45298905  0.57895062  0.13402979    -0.15400
C1098       C  0.43793182  0.59552708  0.15651102     0.37000
N1099       N  0.39831734  0.57670446  0.16371034    -0.89600
H1100       H  0.45083827  0.64108215  0.19238942     0.18100
H1101       H  0.50287700  0.58501117  0.10912108     0.18100
N1102       N  0.55544302  0.65105236  0.13580725    -0.88600
H1103       H  0.39172419  0.59283319  0.18057738     0.35500
H1104       H  0.39123921  0.55202991  0.17736878     0.40600
H1105       H  0.56274815  0.67645311  0.12343767     0.40200
H1106       H  0.56168992  0.63565781  0.11767097     0.35100
C1107       C  0.76664500  0.49179736  0.31304911    -0.26700
C1108       C  0.78313480  0.52720037  0.29731130    -0.14700
C1109       C  0.82247298  0.54917258  0.29501532     0.35900
C1110       C  0.84470921  0.53653189  0.31124597    -0.26100
C1111       C  0.82807923  0.50314045  0.33073346    -0.15400
C1112       C  0.78881633  0.47988332  0.33035807     0.37000
N1113       N  0.77129819  0.44506048  0.34907847    -0.89600
H1114       H  0.73638474  0.47486275  0.31477765     0.18100
H1115       H  0.87489382  0.55445238  0.31154881     0.18100
N1116       N  0.83948775  0.58516844  0.27808346    -0.88600
H1117       H  0.75527143  0.42376260  0.33104002     0.35500
H1118       H  0.75308774  0.44594024  0.36801898     0.40600
H1119       H  0.83222118  0.58071346  0.25133008     0.40200
H1120       H  0.86869901  0.59808070  0.27907645     0.35100
C1121       C  0.78448141  0.62191345  0.17138996    -0.26700
C1122       C  0.79021916  0.63731037  0.20569308    -0.14700
C1123       C  0.82232236  0.67279408  0.21161140     0.35900
C1124       C  0.84763259  0.69107734  0.18382767    -0.26100
C1125       C  0.84213080  0.67534387  0.14963964    -0.15400
C1126       C  0.80957758  0.64024641  0.14360507     0.37000
N1127       N  0.80074450  0.62222195  0.10971101    -0.89600
H1128       H  0.76014847  0.59494869  0.16579003     0.18100
H1129       H  0.87193003  0.71811550  0.18928420     0.18100
N1130       N  0.83025643  0.69128641  0.24526359    -0.88600
H1131       H  0.82233489  0.61731708  0.10185046     0.35500
H1132       H  0.79793928  0.63958845  0.09144607     0.40600
H1133       H  0.83377301  0.67473216  0.26395462     0.40200
H1134       H  0.80776088  0.69495830  0.25265538     0.35100
C1135       C  0.64512643  0.62539203  0.23457392    -0.26700
C1136       C  0.65215243  0.61803231  0.26894954    -0.14700
C1137       C  0.63835835  0.62925684  0.29815773     0.35900
C1138       C  0.61865444  0.64851121  0.29233099    -0.26100
C1139       C  0.61315553  0.65730878  0.25793160    -0.15400
C1140       C  0.62624136  0.64530627  0.22885466     0.37000
N1141       N  0.62039343  0.65332212  0.19339152    -0.89600
H1142       H  0.65557385  0.61688138  0.21201785     0.18100
H1143       H  0.60858813  0.65767974  0.31468648     0.18100
N1144       N  0.64414832  0.62078252  0.33355901    -0.88600
H1145       H  0.60529758  0.62793223  0.17985914     0.35500
H1146       H  0.64656575  0.66867454  0.18105611     0.40600
H1147       H  0.62889261  0.59162056  0.33606454     0.40200
H1148       H  0.63282175  0.63139440  0.35200555     0.35100
C1149       C  0.63238528  0.46383893  0.35066762    -0.26700
C1150       C  0.64539011  0.50229798  0.35477514    -0.14700
C1151       C  0.62698291  0.51422014  0.37870446     0.35900
C1152       C  0.59348236  0.48732128  0.39493033    -0.26100
C1153       C  0.57888842  0.44901222  0.38836164    -0.15400
C1154       C  0.59914673  0.43698624  0.36720320     0.37000
N1155       N  0.58444604  0.39774834  0.36045899    -0.89600
H1156       H  0.64679706  0.45476437  0.33248650     0.18100
H1157       H  0.57745493  0.49628501  0.41102984     0.18100
N1158       N  0.64050343  0.55343088  0.38406060    -0.88600
H1159       H  0.60292747  0.39360092  0.34448910     0.35500
H1160       H  0.55979701  0.38809517  0.34594291     0.40600
H1161       H  0.66618484  0.56462626  0.39695922     0.40200
H1162       H  0.62255444  0.55740562  0.40107050     0.35100
C1163       C  0.14103921  0.41607151  0.71761511    -0.26700
C1164       C  0.17956400  0.44151692  0.71488951    -0.14700
C1165       C  0.19227687  0.47514648  0.69609491     0.35900
C1166       C  0.16617025  0.48120431  0.67785838    -0.26100
C1167       C  0.12780440  0.45438515  0.67839368    -0.15400
C1168       C  0.11505133  0.42210261  0.69959322     0.37000
N1169       N  0.07643824  0.39345708  0.70082653    -0.89600
H1170       H  0.13132484  0.38994668  0.73171815     0.18100
H1171       H  0.17595903  0.50602046  0.66164755     0.18100
N1172       N  0.23173769  0.50130370  0.69304778    -0.88600
H1173       H  0.06766928  0.38397236  0.67505466     0.35500
H1174       H  0.06074656  0.40506415  0.71083821     0.40600
H1175       H  0.24144194  0.51214688  0.71829505     0.40200
H1176       H  0.23648182  0.52397185  0.67715963     0.35100
C1177       C  0.33734531  0.50980699  0.66703511    -0.26700
C1178       C  0.32062412  0.47105207  0.66108263    -0.14700
C1179       C  0.33407396  0.45802990  0.63299829     0.35900
C1180       C  0.36775965  0.48337893  0.61593589    -0.26100
C1181       C  0.38672018  0.52136001  0.62521381    -0.15400
C1182       C  0.37007355  0.53516699  0.64890434     0.37000
N1183       N  0.38823102  0.57452033  0.65656282    -0.89600
H1184       H  0.32611623  0.52014241  0.68741958     0.18100
H1185       H  0.38058330  0.47312112  0.59712385     0.18100
N1186       N  0.31472254  0.41923524  0.62291089    -0.88600
H1187       H  0.37275924  0.58010058  0.67524418     0.35500
H1188       H  0.38821006  0.58808327  0.63326464     0.40600
H1189       H  0.31618129  0.40385840  0.64394783     0.40200
H1190       H  0.32830166  0.41469764  0.60154617     0.35100
C1191       C  0.42408924  0.11778361  0.81020476    -0.26700
C1192       C  0.45687932  0.13322576  0.83048250    -0.14700
C1193       C  0.47988358  0.17249821  0.83223896     0.35900
C1194       C  0.46911711  0.19562234  0.81498746    -0.26100
C1195       C  0.43485303  0.18023241  0.79738122    -0.15400
C1196       C  0.41240783  0.14101635  0.79421955     0.37000
N1197       N  0.37705051  0.12508233  0.77630716    -0.89600
H1198       H  0.40608741  0.08765089  0.80925228     0.18100
H1199       H  0.48620713  0.22571620  0.81771698     0.18100
N1200       N  0.51342695  0.18902402  0.85283873    -0.88600
H1201       H  0.36368826  0.09584887  0.77663686     0.35500
H1202       H  0.38254781  0.13319773  0.74975785     0.40600
H1203       H  0.51105937  0.20592642  0.87226548     0.40200
H1204       H  0.53585680  0.20625991  0.83621080     0.35100
C1205       C  0.32088967  0.34953564  0.78655894    -0.26700
C1206       C  0.31791846  0.36106120  0.75253426    -0.14700
C1207       C  0.33559878  0.35357621  0.72384146     0.35900
C1208       C  0.35369707  0.33296581  0.72923014    -0.26100
C1209       C  0.35400656  0.31878093  0.76268433    -0.15400
C1210       C  0.33870622  0.32836685  0.79196596     0.37000
N1211       N  0.34104916  0.31629854  0.82700078    -0.89600
H1212       H  0.30782900  0.35559902  0.80869180     0.18100
H1213       H  0.36606820  0.32653950  0.70675620     0.18100
N1214       N  0.33585625  0.36677643  0.68889684    -0.88600
H1215       H  0.32829419  0.32545310  0.84546826     0.35500
H1216       H  0.36941665  0.32940619  0.83359165     0.40600
H1217       H  0.34732292  0.39580295  0.69024435     0.40200
H1218       H  0.30830322  0.35438573  0.67992116     0.35100
C1219       C  0.44657815  0.33927763  0.87178683    -0.26700
C1220       C  0.46016528  0.32015681  0.85117784    -0.14700
C1221       C  0.49904916  0.33313898  0.85016324     0.35900
C1222       C  0.52388491  0.36699202  0.86687438    -0.26100
C1223       C  0.51054235  0.38830180  0.88384820    -0.15400
C1224       C  0.47145502  0.37362359  0.88759452     0.37000
N1225       N  0.45641236  0.39363776  0.90622260    -0.89600
H1226       H  0.41677563  0.32931652  0.87295006     0.18100
H1227       H  0.55384374  0.37824996  0.86415285     0.18100
N1228       N  0.51318428  0.31284174  0.83041642    -0.88600
H1229       H  0.46520062  0.41918722  0.89356019     0.35500
H1230       H  0.46720908  0.39908163  0.93188266     0.40600
H1231       H  0.50324314  0.28696551  0.84283292     0.40200
H1232       H  0.54242597  0.32649360  0.83161768     0.35100
C1233       C  0.49360312  0.88690789  0.62759032    -0.26700
C1234       C  0.45503420  0.86101181  0.62811342    -0.14700
C1235       C  0.44202733  0.82509283  0.64240620     0.35900
C1236       C  0.46769259  0.81698357  0.65880691    -0.26100
C1237       C  0.50591640  0.84397348  0.66071523    -0.15400
C1238       C  0.51933435  0.87856164  0.64336943     0.37000
N1239       N  0.55846362  0.90624986  0.64460016    -0.89600
H1240       H  0.50340771  0.91446352  0.61642973     0.18100
H1241       H  0.45755115  0.79040722  0.67216310     0.18100
N1242       N  0.40266783  0.79801635  0.64241055    -0.88600
H1243       H  0.56341741  0.93085535  0.63200911     0.35500
H1244       H  0.57300287  0.89589886  0.62995983     0.40600
H1245       H  0.38908016  0.80831918  0.65855753     0.40200
H1246       H  0.39783597  0.77292587  0.65383232     0.35100
C1247       C  0.29699226  0.79475657  0.67935703    -0.26700
C1248       C  0.31194134  0.83368145  0.68226364    -0.14700
C1249       C  0.29491667  0.84758807  0.70580423     0.35900
C1250       C  0.26076896  0.82227303  0.72239589    -0.26100
C1251       C  0.24418468  0.78354222  0.71674517    -0.15400
C1252       C  0.26328114  0.76952442  0.69641590     0.37000
N1253       N  0.24705140  0.72985651  0.69113514    -0.89600
H1254       H  0.31035796  0.78400719  0.66175396     0.18100
H1255       H  0.24591110  0.83284610  0.73814841     0.18100
N1256       N  0.31053433  0.88724170  0.71046969    -0.88600
H1257       H  0.26479839  0.72412078  0.67569591     0.35500
H1258       H  0.22246398  0.72056780  0.67662101     0.40600
H1259       H  0.33619888  0.89731729  0.72329489     0.40200
H1260       H  0.29362992  0.89274652  0.72740570     0.35100
C1261       C  0.20170444  0.17573497  0.53411413    -0.26700
C1262       C  0.17189873  0.16076448  0.51009850    -0.14700
C1263       C  0.14881623  0.12149609  0.50732761     0.35900
C1264       C  0.15816811  0.09805690  0.52620915    -0.26100
C1265       C  0.19028784  0.11324447  0.54721896    -0.15400
C1266       C  0.21142910  0.15236013  0.55226788     0.37000
N1267       N  0.24365443  0.16903189  0.57469308    -0.89600
H1268       H  0.21939465  0.20581214  0.53660835     0.18100
H1269       H  0.14199419  0.06801026  0.52247473     0.18100
N1270       N  0.11698535  0.10569053  0.48420294    -0.88600
H1271       H  0.26339660  0.16230204  0.56495933     0.35500
H1272       H  0.23535261  0.15749580  0.59998658     0.40600
H1273       H  0.09801424  0.11345950  0.49400994     0.40200
H1274       H  0.10325400  0.07644018  0.48490396     0.35100
C1275       C  0.29822918  0.94551949  0.62047789    -0.26700
C1276       C  0.31543952  0.93997780  0.59057422    -0.14700
C1277       C  0.31143842  0.95268718  0.55731588     0.35900
C1278       C  0.29168990  0.97226079  0.55491378    -0.26100
C1279       C  0.27579877  0.97934417  0.58507057    -0.15400
C1280       C  0.27811924  0.96460189  0.61803136     0.37000
N1281       N  0.26199397  0.97003947  0.64966955    -0.89600
H1282       H  0.30123610  0.93569014  0.64613448     0.18100
H1283       H  0.28958908  0.98300604  0.52943360     0.18100
N1284       N  0.32884181  0.94718947  0.52646699    -0.88600
H1285       H  0.23302683  0.95739060  0.64630332     0.35500
H1286       H  0.27300198  0.99876306  0.65362907     0.40600
H1287       H  0.35785013  0.96255696  0.53004629     0.40200
H1288       H  0.32312534  0.95816545  0.50401907     0.35100
C1289       C  0.10672833  0.92583074  0.47698108    -0.26700
C1290       C  0.12031764  0.90220466  0.46621491    -0.14700
C1291       C  0.15914366  0.91513361  0.46739523     0.35900
C1292       C  0.18331256  0.95037239  0.48223553    -0.26100
C1293       C  0.16909558  0.97223990  0.49649728    -0.15400
C1294       C  0.13080466  0.96070746  0.49258854     0.37000
N1295       N  0.11634953  0.98368301  0.50616556    -0.89600
H1296       H  0.07693539  0.91588717  0.47571159     0.18100
H1297       H  0.21273813  0.95931673  0.48544780     0.18100
N1298       N  0.17351094  0.89162937  0.45502731    -0.88600
H1299       H  0.08752665  0.97096589  0.50172319     0.35500
H1300       H  0.12889944  0.00856647  0.49163997     0.40600
H1301       H  0.20256807  0.90506078  0.45815245     0.40200
H1302       H  0.16846704  0.88764880  0.42782966     0.35100
C1303       C  0.32473105  0.15512528  0.63721830    -0.26700
C1304       C  0.29417528  0.12026526  0.64670813    -0.14700
C1305       C  0.28369964  0.11333003  0.68286258     0.35900
C1306       C  0.30303292  0.14133375  0.70825993    -0.26100
C1307       C  0.33335655  0.17632234  0.69876676    -0.15400
C1308       C  0.34436949  0.18299301  0.66268801     0.37000
N1309       N  0.37530248  0.21808861  0.65150188    -0.89600
H1310       H  0.33326482  0.16117395  0.60971752     0.18100
H1311       H  0.29460161  0.13518928  0.73577309     0.18100
N1312       N  0.25381532  0.07767533  0.69423747    -0.88600
H1313       H  0.36559455  0.22975406  0.63274846     0.35500
H1314       H  0.39504759  0.21285224  0.63913162     0.40600
H1315       H  0.23369076  0.08192942  0.70717142     0.40200
H1316       H  0.26458166  0.06660736  0.71254100     0.35100
C1317       C  0.88211612  0.48744370  0.88639928    -0.26700
C1318       C  0.86028056  0.44855170  0.88224787    -0.14700
C1319       C  0.82700333  0.43315023  0.86253551     0.35900
C1320       C  0.81754174  0.45726118  0.84517382    -0.26100
C1321       C  0.84091522  0.49625502  0.84705062    -0.15400
C1322       C  0.87251765  0.51161027  0.86927509     0.37000
N1323       N  0.89649606  0.55150006  0.87185477    -0.89600
H1324       H  0.90781523  0.49896045  0.90146178     0.18100
H1325       H  0.79322720  0.44561837  0.82814589     0.18100
N1326       N  0.80456632  0.39327800  0.85803073    -0.88600
H1327       H  0.91972715  0.55804455  0.88762016     0.35500
H1328       H  0.88141197  0.56217163  0.88505879     0.40600
H1329       H  0.82045843  0.38445229  0.84344561     0.40200
H1330       H  0.78087964  0.38653795  0.84288919     0.35100
C1331       C  0.80322950  0.29894322  0.82889959    -0.26700
C1332       C  0.84147011  0.31036963  0.83121757    -0.14700
C1333       C  0.85559297  0.28970130  0.81368589     0.35900
C1334       C  0.83051483  0.25614086  0.79666510    -0.26100
C1335       C  0.79190453  0.24330552  0.79657782    -0.15400
C1336       C  0.77817354  0.26547779  0.81164402     0.37000
N1337       N  0.73865433  0.25258292  0.81174664    -0.89600
H1338       H  0.79252135  0.31480855  0.84270698     0.18100
H1339       H  0.84077649  0.23872792  0.78524522     0.18100
N1340       N  0.89463074  0.30090822  0.81617541    -0.88600
H1341       H  0.73326980  0.27232415  0.82383604     0.35500
H1342       H  0.72543699  0.22847842  0.82737845     0.40600
H1343       H  0.90978888  0.32600228  0.80224833     0.40200
H1344       H  0.90003262  0.28142628  0.80355528     0.35100
C1345       C  0.95112365  0.45000889  0.01778468    -0.26700
C1346       C  0.96340294  0.45864855  0.98241158    -0.14700
C1347       C  0.99329728  0.49509165  0.97464371     0.35900
C1348       C  0.01040579  0.52101070  0.00200029    -0.26100
C1349       C  0.99863473  0.51213596  0.03743934    -0.15400
C1350       C  0.96804008  0.47625656  0.04525122     0.37000
N1351       N  0.95460433  0.46608914  0.08099228    -0.89600
H1352       H  0.92799354  0.42249772  0.02420657     0.18100
H1353       H  0.03349801  0.54846834  0.99528798     0.18100
N1354       N  0.00677824  0.50714766  0.93934821    -0.88600
H1355       H  0.93351776  0.43801399  0.08237939     0.35500
H1356       H  0.94201928  0.48178316  0.08832135     0.40600
H1357       H  0.98459259  0.50415280  0.92375211     0.40200
H1358       H  0.01740698  0.49067106  0.92914343     0.35100
C1359       C  0.10500719  0.15697301  0.98277405    -0.26700
C1360       C  0.11947397  0.19013428  0.96323564    -0.14700
C1361       C  0.15872582  0.21244091  0.95834423     0.35900
C1362       C  0.18258819  0.20303811  0.97626028    -0.26100
C1363       C  0.16814871  0.17224042  0.99920704    -0.15400
C1364       C  0.12883838  0.14789642  0.00098057     0.37000
N1365       N  0.11225983  0.11412985  0.02143531    -0.89600
H1366       H  0.07496517  0.13951416  0.98619435     0.18100
H1367       H  0.21262237  0.22153112  0.97420389     0.18100
N1368       N  0.17531453  0.24559304  0.93675765    -0.88600
H1369       H  0.11742053  0.12076044  0.04825433     0.35500
H1370       H  0.12451503  0.09823451  0.01374887     0.40600
H1371       H  0.15493426  0.24920386  0.92405064     0.40200
H1372       H  0.19057572  0.24163118  0.91660864     0.35100
C1373       C  0.18277196  0.35103941  0.84731410    -0.26700
C1374       C  0.17599651  0.33836912  0.81201232    -0.14700
C1375       C  0.14250117  0.30478251  0.80423757     0.35900
C1376       C  0.11762772  0.28432673  0.83186740    -0.26100
C1377       C  0.12463866  0.29669745  0.86726151    -0.15400
C1378       C  0.15774981  0.33071212  0.87492874     0.37000
N1379       N  0.16627675  0.34454094  0.91063315    -0.89600
H1380       H  0.20810680  0.37688255  0.85365730     0.18100
H1381       H  0.09223038  0.25857201  0.82545929     0.18100
N1382       N  0.13338667  0.29159726  0.76837660    -0.88600
H1383       H  0.19062778  0.37076471  0.91137417     0.35500
H1384       H  0.17216085  0.32636453  0.92477641     0.40600
H1385       H  0.12821092  0.31055821  0.75474991     0.40200
H1386       H  0.10851770  0.26582203  0.76745776     0.35100
C1387       C  0.96075067  0.30697886  0.89126135    -0.26700
C1388       C  0.94647298  0.31567216  0.92160607    -0.14700
C1389       C  0.94866759  0.30116338  0.95465533     0.35900
C1390       C  0.96724591  0.28035768  0.95690179    -0.26100
C1391       C  0.98298458  0.27320544  0.92675445    -0.15400
C1392       C  0.97858949  0.28552729  0.89341795     0.37000
N1393       N  0.99422804  0.27823560  0.86225805    -0.89600
H1394       H  0.95850613  0.31754182  0.86573756     0.18100
H1395       H  0.97052425  0.27061467  0.98249607     0.18100
N1396       N  0.93350599  0.30883568  0.98593906    -0.88600
H1397       H  0.98999748  0.29071156  0.84008541     0.35500
H1398       H  0.97931954  0.24936764  0.85769780     0.40600
H1399       H  0.94895665  0.33766037  0.99066361     0.40200
H1400       H  0.93719519  0.29580951  0.00798263     0.35100
C1401       C  0.92883407  0.10158081  0.03476985    -0.26700
C1402       C  0.90629266  0.11545368  0.04813419    -0.14700
C1403       C  0.91963634  0.15430047  0.04739248     0.35900
C1404       C  0.95418448  0.17841872  0.03122727    -0.26100
C1405       C  0.97503747  0.16411189  0.01478261    -0.15400
C1406       C  0.96304028  0.12560212  0.01765031     0.37000
N1407       N  0.98488005  0.11092361  0.00175281    -0.89600
H1408       H  0.91842591  0.07169179  0.03522746     0.18100
H1409       H  0.96316412  0.20793839  0.02897262     0.18100
N1410       N  0.89728683  0.16905915  0.06168978    -0.88600
H1411       H  0.97203806  0.08203881  0.00585682     0.35500
H1412       H  0.01055003  0.12298484  0.01489017     0.40600
H1413       H  0.89203279  0.18296142  0.04141339     0.40200
H1414       H  0.91294690  0.18877576  0.08111218     0.35100
C1415       C  0.52967318  0.13852494  0.36579725    -0.26700
C1416       C  0.51521104  0.10324652  0.38142577    -0.14700
C1417       C  0.47615955  0.07922394  0.38339332     0.35900
C1418       C  0.45216016  0.08960684  0.36719448    -0.26100
C1419       C  0.46691441  0.12296598  0.34784452    -0.15400
C1420       C  0.50581421  0.14854328  0.34867400     0.37000
N1421       N  0.52095240  0.18385112  0.33072700    -0.89600
H1422       H  0.55975402  0.15700460  0.36451229     0.18100
H1423       H  0.42227726  0.07016324  0.36722816     0.18100
N1424       N  0.46100569  0.04359815  0.40050179    -0.88600
H1425       H  0.55008376  0.19917362  0.33331853     0.35500
H1426       H  0.51045816  0.19922971  0.34363473     0.40600
H1427       H  0.44518403  0.02277676  0.38198781     0.40200
H1428       H  0.44290970  0.04245238  0.42066335     0.35100
C1429       C  0.67518133  0.17348840  0.33361790    -0.26700
C1430       C  0.65700238  0.13497831  0.32553421    -0.14700
C1431       C  0.66960836  0.12317336  0.29572410     0.35900
C1432       C  0.70285457  0.14885927  0.27838077    -0.26100
C1433       C  0.72309719  0.18631056  0.28942864    -0.15400
C1434       C  0.70804932  0.19924980  0.31579189     0.37000
N1435       N  0.72814776  0.23788640  0.32652609    -0.89600
H1436       H  0.66512812  0.18322141  0.35554549     0.18100
H1437       H  0.71438855  0.13891713  0.25791750     0.18100
N1438       N  0.65078564  0.08513219  0.28376016    -0.88600
H1439       H  0.71387685  0.24282483  0.34697221     0.35500
H1440       H  0.72868363  0.25396886  0.30498610     0.40600
H1441       H  0.62332948  0.07767962  0.27716026     0.40200
H1442       H  0.65007930  0.06798218  0.30430200     0.35100
C1443       C  0.47684282  0.97293911  0.46691747    -0.26700
C1444       C  0.51344513  0.99991931  0.47651056    -0.14700
C1445       C  0.52202696  0.00703881  0.51288939     0.35900
C1446       C  0.49411144  0.98782563  0.53862325    -0.26100
C1447       C  0.45741346  0.96109658  0.52910831    -0.15400
C1448       C  0.44871108  0.95371965  0.49266658     0.37000
N1449       N  0.41122299  0.92726349  0.48179029    -0.89600
H1450       H  0.46976351  0.96764348  0.43913058     0.18100
H1451       H  0.50153494  0.99338207  0.56632848     0.18100
N1452       N  0.55928513  0.03334513  0.52400739    -0.88600
H1453       H  0.40963718  0.92479860  0.45421288     0.35500
H1454       H  0.39396606  0.93801219  0.48940718     0.40600
H1455       H  0.56883731  0.01928628  0.54004732     0.40200
H1456       H  0.55808464  0.05391375  0.53936908     0.35100
C1457       C  0.80597151  0.85474474  0.47671346    -0.26700
C1458       C  0.76884247  0.84239802  0.46707293    -0.14700
C1459       C  0.74178514  0.80415480  0.47013462     0.35900
C1460       C  0.75151833  0.77932192  0.48538217    -0.26100
C1461       C  0.78764744  0.79243687  0.49841578    -0.15400
C1462       C  0.81552041  0.83004046  0.49288056     0.37000
N1463       N  0.85294656  0.84314979  0.50509807    -0.89600
H1464       H  0.82677001  0.88414064  0.47419926     0.18100
H1465       H  0.73001515  0.75044030  0.48967878     0.18100
N1466       N  0.70398598  0.79084256  0.45913490    -0.88600
H1467       H  0.87007220  0.87159470  0.49943614     0.35500
H1468       H  0.86359394  0.82887183  0.49048312     0.40600
H1469       H  0.68635920  0.77886860  0.48106264     0.40200
H1470       H  0.69716388  0.76982062  0.44023441     0.35100
C1471       C  0.66532415  0.02109063  0.45063268    -0.26700
C1472       C  0.65547606  0.02398500  0.41579815    -0.14700
C1473       C  0.66847081  0.01029038  0.38771463     0.35900
C1474       C  0.68908518  0.99255198  0.39516254    -0.26100
C1475       C  0.69652244  0.98735835  0.43011109    -0.15400
C1476       C  0.68549147  0.00267234  0.45810463     0.37000
N1477       N  0.69446538  0.99903122  0.49401612    -0.89600
H1478       H  0.65596344  0.03190440  0.47222720     0.18100
H1479       H  0.69774759  0.98110557  0.37353598     0.18100
N1480       N  0.66179265  0.01447557  0.35135487    -0.88600
H1481       H  0.68420349  0.01161520  0.51150340     0.35500
H1482       H  0.72364416  0.01396673  0.49618507     0.40600
H1483       H  0.67189968  0.04287779  0.34659466     0.40200
H1484       H  0.63303080  0.99943781  0.34655537     0.35100
C1485       C  0.86426037  0.03023517  0.54263189    -0.26700
C1486       C  0.85114053  0.05352193  0.55548049    -0.14700
C1487       C  0.81229796  0.04026007  0.55741653     0.35900
C1488       C  0.78742675  0.00563611  0.54213349    -0.26100
C1489       C  0.80108698  0.98499730  0.52430471    -0.15400
C1490       C  0.83953107  0.99610869  0.52661120     0.37000
N1491       N  0.85428260  0.97394738  0.51188366    -0.89600
H1492       H  0.89408593  0.04015070  0.54185600     0.18100
H1493       H  0.75784729  0.99669276  0.54096072     0.18100
N1494       N  0.79867267  0.06332299  0.57263365    -0.88600
H1495       H  0.85049987  0.97198329  0.48451221     0.35500
H1496       H  0.83931481  0.94705721  0.52266760     0.40600
H1497       H  0.80563915  0.06679447  0.59946793     0.40200
H1498       H  0.76943194  0.04978276  0.57142711     0.35100
C1499       C  0.64236710  0.81246660  0.37999118    -0.26700
C1500       C  0.67143421  0.84811329  0.37049552    -0.14700
C1501       C  0.67960179  0.85714683  0.33421118     0.35900
C1502       C  0.65895606  0.83002000  0.30842893    -0.26100
C1503       C  0.62985219  0.79431773  0.31797011    -0.15400
C1504       C  0.62166211  0.78559704  0.35427075     0.37000
N1505       N  0.59281468  0.74926153  0.36537077    -0.89600
H1506       H  0.63609840  0.80494693  0.40766601     0.18100
H1507       H  0.66512697  0.83715577  0.28069011     0.18100
N1508       N  0.70840553  0.89389558  0.32357227    -0.88600
H1509       H  0.57335868  0.75257998  0.38063652     0.35500
H1510       H  0.60492473  0.73768538  0.38149643     0.40600
H1511       H  0.69981830  0.91283897  0.33141926     0.40200
H1512       H  0.71110940  0.89572606  0.29599966     0.35100
loop_ 
_geom_bond_atom_site_label_1 
_geom_bond_atom_site_label_2 
_geom_bond_distance 
_geom_bond_site_symmetry_2 
_ccdc_geom_bond_type 
O1           Ni9   1.932       .  S
O1           C11   1.284       .  A
O2           Ni9   1.925       .  S
O2           C12   1.282       .  A
O3           Ni9   1.901       .  S
O3           C13   1.278       .  A
O4           Ni9   1.900       .  S
O4           C14   1.278       .  A
O5          Ni10   1.921       .  S
O5           C14   1.281       .  A
O6          Ni10   1.920       .  S
O6           C13   1.284       .  A
O7          Ni10   1.900       .  S
O7           C12   1.278       .  A
O8          Ni10   1.906       .  S
O8           C11   1.278       .  A
Ni9         Ni10   2.390       .  S
C11        C1475   1.477       .  S
C12        C1458   1.469       .  S
C13        C1500   1.479       .  S
C14        C1489   1.465       .  S
O15         Ni23   1.931       .  S
O15          C25   1.285       .  A
O16         Ni23   1.927       .  S
O16          C26   1.282       .  A
O17         Ni23   1.909       .  S
O17          C27   1.279       .  A
O18         Ni23   1.905       .  S
O18          C28   1.280       .  A
O19         Ni24   1.939       .  S
O19          C28   1.285       .  A
O20         Ni24   1.936       .  S
O20          C27   1.286       .  A
O21         Ni24   1.904       .  S
O21          C26   1.278       .  A
O22         Ni24   1.912       .  S
O22          C25   1.279       .  A
Ni23        Ni24   2.386       .  S
C25        C1472   1.485       .  S
C26        C1416   1.468       .  S
C27        C1444   1.492   1_545  S
C28        C1430   1.490       .  S
O29         Ni37   1.935       .  S
O29          C39   1.285       .  A
O30         Ni37   1.929       .  S
O30          C40   1.282       .  A
O31         Ni37   1.909       .  S
O31          C41   1.279       .  A
O32         Ni37   1.912       .  S
O32          C42   1.281       .  A
O33         Ni38   1.928       .  S
O33          C42   1.284       .  A
O34         Ni38   1.928       .  S
O34          C41   1.283       .  A
O35         Ni38   1.907       .  S
O35          C40   1.279       .  A
O36         Ni38   1.904       .  S
O36          C39   1.278       .  A
Ni37        Ni38   2.388       .  S
C39        C1391   1.478   1_455  S
C40        C1360   1.471       .  S
C41        C1405   1.473   1_456  S
C42        C1377   1.495       .  S
O43         Ni51   1.935       .  S
O43          C53   1.285       .  A
O44         Ni51   1.924       .  S
O44          C54   1.282       .  A
O45         Ni51   1.905       .  S
O45          C55   1.279       .  A
O46         Ni51   1.912       .  S
O46          C56   1.281       .  A
O47         Ni52   1.921       .  S
O47          C56   1.282       .  A
O48         Ni52   1.922       .  S
O48          C55   1.282       .  A
O49         Ni52   1.902       .  S
O49          C54   1.278       .  A
O50         Ni52   1.906       .  S
O50          C53   1.279       .  A
Ni51        Ni52   2.388       .  S
C53        C1388   1.483       .  S
C54        C1318   1.465       .  S
C55        C1332   1.469       .  S
C56        C1346   1.491       .  S
O57         Ni65   1.935   1_565  S
O57          C67   1.285   1_565  A
O58         Ni65   1.928       .  S
O58          C68   1.282       .  A
O59         Ni65   1.901   1_565  S
O59          C69   1.277   1_565  A
O60         Ni65   1.906       .  S
O60          C70   1.278       .  A
O61         Ni66   1.930       .  S
O61          C70   1.285       .  A
O62         Ni66   1.929       .  S
O62          C69   1.283       .  A
O63         Ni66   1.901       .  S
O63          C68   1.277       .  A
O64         Ni66   1.901       .  S
O64          C67   1.278       .  A
Ni65        Ni66   2.388       .  S
C67        C1279   1.484   1_545  S
C68        C1265   1.466       .  S
C69        C1293   1.469   1_545  S
C70        C1304   1.490       .  S
O71         Ni79   1.935       .  S
O71          C81   1.285       .  A
O72         Ni79   1.930       .  S
O72          C82   1.283       .  A
O73         Ni79   1.907       .  S
O73          C83   1.279       .  A
O74         Ni79   1.911       .  S
O74          C84   1.279       .  A
O75         Ni80   1.936       .  S
O75          C84   1.287       .  A
O76         Ni80   1.935       .  S
O76          C83   1.285       .  A
O77         Ni80   1.902       .  S
O77          C82   1.278       .  A
O78         Ni80   1.905       .  S
O78          C81   1.277       .  A
Ni79        Ni80   2.388       .  S
C81        C1276   1.475       .  S
C82        C1234   1.472       .  S
C83        C1248   1.484       .  S
C84        C1447   1.493       .  S
O85         Ni93   1.933       .  S
O85          C95   1.285       .  A
O86         Ni93   1.928       .  S
O86          C96   1.283       .  A
O87         Ni93   1.904       .  S
O87          C97   1.277       .  A
O88         Ni93   1.896       .  S
O88          C98   1.277       .  A
O89         Ni94   1.935       .  S
O89          C98   1.285       .  A
O90         Ni94   1.933       .  S
O90          C97   1.287       .  A
O91         Ni94   1.904       .  S
O91          C96   1.278       .  A
O92         Ni94   1.905       .  S
O92          C95   1.278       .  A
Ni93        Ni94   2.388       .  S
C95        C1209   1.481       .  S
C96        C1195   1.469       .  S
C97        C1307   1.491       .  S
C98        C1220   1.474       .  S
O99        Ni107   1.938       .  S
O99         C109   1.285       .  A
O100       Ni107   1.929       .  S
O100        C110   1.283       .  A
O101       Ni107   1.912       .  S
O101        C111   1.281       .  A
O102       Ni107   1.907       .  S
O102        C112   1.281       .  A
O103       Ni108   1.926       .  S
O103        C112   1.282       .  A
O104       Ni108   1.925       .  S
O104        C111   1.284       .  A
O105       Ni108   1.898       .  S
O105        C110   1.277       .  A
O106       Ni108   1.906       .  S
O106        C109   1.277       .  A
Ni107      Ni108   2.387       .  S
C109       C1206   1.481       .  S
C110       C1164   1.467       .  S
C111       C1374   1.494       .  S
C112       C1178   1.481       .  S
O113       Ni121   1.929       .  S
O113        C123   1.284       .  A
O114       Ni121   1.923       .  S
O114        C124   1.281       .  A
O115       Ni121   1.902       .  S
O115        C125   1.279       .  A
O116       Ni121   1.903       .  S
O116        C126   1.279       .  A
O117       Ni122   1.928       .  S
O117        C126   1.284       .  A
O118       Ni122   1.929       .  S
O118        C125   1.283       .  A
O119       Ni122   1.907       .  S
O119        C124   1.279       .  A
O120       Ni122   1.912       .  S
O120        C123   1.279       .  A
Ni121      Ni122   2.388       .  S
C123       C1136   1.479       .  S
C124       C1108   1.467       .  S
C125       C1150   1.475       .  S
C126       C1122   1.493       .  S
O127       Ni135   1.933       .  S
O127        C137   1.285       .  A
O128       Ni135   1.928       .  S
O128        C138   1.282       .  A
O129       Ni135   1.903       .  S
O129        C139   1.279       .  A
O130       Ni135   1.901       .  S
O130        C140   1.277       .  A
O131       Ni136   1.927       .  S
O131        C140   1.285       .  A
O132       Ni136   1.933       .  S
O132        C139   1.284       .  A
O133       Ni136   1.902       .  S
O133        C138   1.277       .  A
O134       Ni136   1.904       .  S
O134        C137   1.278       .  A
Ni135      Ni136   2.388       .  S
C137       C1139   1.478       .  S
C138       C1080   1.468       .  S
C139       C1094   1.482       .  S
C140       C1503   1.483       .  S
O141       Ni149   1.934       .  S
O141        C151   1.285       .  A
O142       Ni149   1.930       .  S
O142        C152   1.283       .  A
O143       Ni149   1.907       .  S
O143        C153   1.280       .  A
O144       Ni149   1.904       .  S
O144        C154   1.278       .  A
O145       Ni150   1.930       .  S
O145        C154   1.284       .  A
O146       Ni150   1.926       .  S
O146        C153   1.284       .  A
O147       Ni150   1.901       .  S
O147        C152   1.277       .  A
O148       Ni150   1.904       .  S
O148        C151   1.278       .  A
Ni149      Ni150   2.387       .  S
C151       C1055   1.482       .  S
C152       C1041   1.468       .  S
C153       C1349   1.490   1_455  S
C154       C1069   1.477       .  S
O155       Ni163   1.935       .  S
O155        C165   1.285       .  A
O156       Ni163   1.928       .  S
O156        C166   1.282       .  A
O157       Ni163   1.907       .  S
O157        C167   1.280       .  A
O158       Ni163   1.904       .  S
O158        C168   1.279       .  A
O159       Ni164   1.929       .  S
O159        C168   1.283       .  A
O160       Ni164   1.926       .  S
O160        C167   1.283       .  A
O161       Ni164   1.899       .  S
O161        C166   1.277       .  A
O162       Ni164   1.903       .  S
O162        C165   1.277       .  A
Ni163      Ni164   2.388       .  S
C165       C1052   1.477       .  S
C166       C1010   1.466       .  S
C167       C1125   1.494       .  S
C168       C1024   1.474   1_554  S
O169       Ni177   1.937       .  S
O169        C179   1.284       .  A
O170       Ni177   1.928       .  S
O170        C180   1.282       .  A
O171       Ni177   1.921       .  S
O171        C181   1.282       .  A
O172       Ni177   1.909       .  S
O172        C182   1.280       .  A
O173       Ni178   1.923       .  S
O173        C182   1.282       .  A
O174       Ni178   1.923       .  S
O174        C181   1.283       .  A
O175       Ni178   1.902       .  S
O175        C180   1.277       .  A
O176       Ni178   1.903       .  S
O176        C179   1.279       .  A
Ni177      Ni178   2.388       .  S
C179        C996   1.482       .  S
C180        C968   1.468       .  S
C181        C985   1.493       .  S
C182       C1083   1.476       .  S
O183       Ni191   1.946   1_565  S
O183        C193   1.286   1_565  A
O184       Ni191   1.936       .  S
O184        C194   1.285       .  A
O185       Ni191   1.908       .  S
O185        C195   1.279       .  A
O186       Ni191   1.900   1_565  S
O186        C196   1.277   1_565  A
O187       Ni192   1.929       .  S
O187        C196   1.283       .  A
O188       Ni192   1.925       .  S
O188        C195   1.284       .  A
O189       Ni192   1.896       .  S
O189        C194   1.276       .  A
O190       Ni192   1.896       .  S
O190        C193   1.277       .  A
Ni191      Ni192   2.389       .  S
C193        C999   1.483   1_545  S
C194       C1402   1.472       .  S
C195        C940   1.485       .  S
C196        C957   1.470   1_544  S
O197       Ni205   1.936       .  S
O197        C207   1.285       .  A
O198       Ni205   1.932       .  S
O198        C208   1.283       .  A
O199       Ni205   1.902       .  S
O199        C209   1.279       .  A
O200       Ni205   1.911       .  S
O200        C210   1.280       .  A
O201       Ni206   1.925       .  S
O201        C210   1.284       .  A
O202       Ni206   1.929       .  S
O202        C209   1.283       .  A
O203       Ni206   1.903       .  S
O203        C208   1.278       .  A
O204       Ni206   1.906       .  S
O204        C207   1.278       .  A
Ni205      Ni206   2.388       .  S
C207        C912   1.481       .  S
C208       C1433   1.469       .  S
C209        C926   1.477       .  S
C210        C943   1.488       .  S
O211       Ni219   1.938       .  S
O211        C221   1.285       .  A
O212       Ni219   1.931       .  S
O212        C222   1.283       .  A
O213       Ni219   1.903       .  S
O213        C223   1.278       .  A
O214       Ni219   1.907       .  S
O214        C224   1.280       .  A
O215       Ni220   1.928       .  S
O215        C224   1.284       .  A
O216       Ni220   1.932       .  S
O216        C223   1.285       .  A
O217       Ni220   1.897       .  S
O217        C222   1.276       .  A
O218       Ni220   1.898       .  S
O218        C221   1.277       .  A
Ni219      Ni220   2.388       .  S
C221        C915   1.479       .  S
C222        C884   1.466       .  S
C223       C1038   1.478       .  S
C224        C898   1.490       .  S
O225       Ni233   1.932       .  S
O225        C235   1.285       .  A
O226       Ni233   1.928       .  S
O226        C236   1.282       .  A
O227       Ni233   1.910       .  S
O227        C237   1.280       .  A
O228       Ni233   1.905       .  S
O228        C238   1.279       .  A
O229       Ni234   1.926       .  S
O229        C238   1.283       .  A
O230       Ni234   1.925       .  S
O230        C237   1.284       .  A
O231       Ni234   1.904       .  S
O231        C236   1.278       .  A
O232       Ni234   1.907       .  S
O232        C235   1.278       .  A
Ni233      Ni234   2.389       .  S
C235        C873   1.478       .  S
C236        C859   1.470       .  S
C237        C901   1.490       .  S
C238       C1262   1.476       .  S
O239       Ni247   1.939       .  S
O239        C249   1.285       .  A
O240       Ni247   1.930       .  S
O240        C250   1.283       .  A
O241       Ni247   1.906       .  S
O241        C251   1.279       .  A
O242       Ni247   1.904       .  S
O242        C252   1.279       .  A
O243       Ni248   1.921       .  S
O243        C252   1.282       .  A
O244       Ni248   1.915       .  S
O244        C251   1.282       .  A
O245       Ni248   1.898       .  S
O245        C250   1.276       .  A
O246       Ni248   1.899       .  S
O246        C249   1.278       .  A
Ni247      Ni248   2.388       .  S
C249        C870   1.485       .  S
C250       C1153   1.466       .  S
C251        C828   1.483       .  S
C252        C845   1.472       .  S
O253       Ni261   1.929       .  S
O253        C263   1.284       .  A
O254       Ni261   1.925       .  S
O254        C264   1.281       .  A
O255       Ni261   1.903       .  S
O255        C265   1.279       .  A
O256       Ni261   1.904       .  S
O256        C266   1.280       .  A
O257       Ni262   1.918       .  S
O257        C266   1.282       .  A
O258       Ni262   1.928       .  S
O258        C265   1.283       .  A
O259       Ni262   1.902       .  S
O259        C264   1.278       .  A
O260       Ni262   1.904       .  S
O260        C263   1.278       .  A
Ni261      Ni262   2.390       .  S
C263        C800   1.478       .  S
C264       C1181   1.463       .  S
C265        C814   1.474       .  S
C266        C831   1.482       .  S
O267       Ni275   1.934       .  S
O267        C277   1.285       .  A
O268       Ni275   1.929       .  S
O268        C278   1.283       .  A
O269       Ni275   1.902       .  S
O269        C279   1.278       .  A
O270       Ni275   1.902       .  S
O270        C280   1.278       .  A
O271       Ni276   1.919       .  S
O271        C280   1.283       .  A
O272       Ni276   1.927       .  S
O272        C279   1.282       .  A
O273       Ni276   1.901       .  S
O273        C278   1.278       .  A
O274       Ni276   1.902       .  S
O274        C277   1.277       .  A
Ni275      Ni276   2.389       .  S
C277        C803   1.475       .  S
C278        C772   1.473       .  S
C279       C1461   1.467       .  S
C280        C786   1.484       .  S
O281       Ni289   1.933       .  S
O281        C291   1.284       .  A
O282       Ni289   1.928       .  S
O282        C292   1.283       .  A
O283       Ni289   1.904       .  S
O283        C293   1.278       .  A
O284       Ni289   1.905       .  S
O284        C294   1.280       .  A
O285       Ni290   1.918       .  S
O285        C294   1.281       .  A
O286       Ni290   1.917       .  S
O286        C293   1.283       .  A
O287       Ni290   1.907       .  S
O287        C292   1.279       .  A
O288       Ni290   1.909       .  S
O288        C291   1.279       .  A
Ni289      Ni290   2.389       .  S
C291        C758   1.479       .  S
C292        C744   1.472       .  S
C293        C789   1.483       .  S
C294       C1321   1.471       .  S
O295       Ni303   1.935       .  S
O295        C305   1.285       .  A
O296       Ni303   1.933       .  S
O296        C306   1.283       .  A
O297       Ni303   1.903       .  S
O297        C307   1.278       .  A
O298       Ni303   1.901       .  S
O298        C308   1.278       .  A
O299       Ni304   1.932       .  S
O299        C308   1.285       .  A
O300       Ni304   1.932       .  S
O300        C307   1.285       .  A
O301       Ni304   1.909       .  S
O301        C306   1.278       .  A
O302       Ni304   1.910       .  S
O302        C305   1.279       .  A
Ni303      Ni304   2.388       .  S
C305        C761   1.484       .  S
C306       C1251   1.474       .  S
C307        C730   1.485       .  S
C308        C716   1.476       .  S
O309       Ni317   1.940       .  S
O309        C319   1.286       .  A
O310       Ni317   1.936       .  S
O310        C320   1.284       .  A
O311       Ni317   1.900       .  S
O311        C321   1.277       .  A
O312       Ni317   1.907       .  S
O312        C322   1.280       .  A
O313       Ni318   1.934       .  S
O313        C322   1.285       .  A
O314       Ni318   1.936       .  S
O314        C321   1.285       .  A
O315       Ni318   1.900       .  S
O315        C320   1.277       .  A
O316       Ni318   1.896       .  S
O316        C319   1.277       .  A
Ni317      Ni318   2.386       .  S
C319        C702   1.489       .  S
C320        C688   1.473       .  S
C321       C1192   1.477       .  S
C322        C982   1.492       .  S
O323       Ni331   1.934       .  S
O323        C333   1.284       .  A
O324       Ni331   1.930       .  S
O324        C334   1.283       .  A
O325       Ni331   1.900       .  S
O325        C335   1.276       .  A
O326       Ni331   1.907       .  S
O326        C336   1.278       .  A
O327       Ni332   1.930       .  S
O327        C336   1.286       .  A
O328       Ni332   1.941       .  S
O328        C335   1.286       .  A
O329       Ni332   1.901       .  S
O329        C334   1.277       .  A
O330       Ni332   1.903       .  S
O330        C333   1.277       .  A
Ni331      Ni332   2.389       .  S
C333        C705   1.473       .  S
C334       C1027   1.468       .  S
C335        C674   1.480   1_556  S
C336        C733   1.486       .  S
O337       Ni345   1.936       .  S
O337        C347   1.285       .  A
O338       Ni345   1.930       .  S
O338        C348   1.283       .  A
O339       Ni345   1.904       .  S
O339        C349   1.279       .  A
O340       Ni345   1.901       .  S
O340        C350   1.278       .  A
O341       Ni346   1.924       .  S
O341        C350   1.284       .  A
O342       Ni346   1.929       .  S
O342        C349   1.284       .  A
O343       Ni346   1.902       .  S
O343        C348   1.277       .  A
O344       Ni346   1.903       .  S
O344        C347   1.278       .  A
Ni345      Ni346   2.388       .  S
C347        C646   1.481       .  S
C348       C1223   1.469       .  S
C349        C747   1.479       .  S
C350        C660   1.484       .  S
O351       Ni359   1.930       .  S
O351        C361   1.284       .  A
O352       Ni359   1.922       .  S
O352        C362   1.281       .  A
O353       Ni359   1.905       .  S
O353        C363   1.279       .  A
O354       Ni359   1.908       .  S
O354        C364   1.279       .  A
O355       Ni360   1.927       .  S
O355        C364   1.285       .  A
O356       Ni360   1.926       .  S
O356        C363   1.283       .  A
O357       Ni360   1.904       .  S
O357        C362   1.279       .  A
O358       Ni360   1.911       .  S
O358        C361   1.279       .  A
Ni359      Ni360   2.389       .  S
C361        C649   1.480       .  S
C362        C954   1.467       .  S
C363       C1013   1.472   1_556  S
C364        C635   1.488       .  S
O365       Ni373   1.934       .  S
O365        C375   1.285       .  A
O366       Ni373   1.929       .  S
O366        C376   1.283       .  A
O367       Ni373   1.906       .  S
O367        C377   1.278       .  A
O368       Ni373   1.905       .  S
O368        C378   1.278       .  A
O369       Ni374   1.930       .  S
O369        C378   1.284       .  A
O370       Ni374   1.929       .  S
O370        C377   1.284       .  A
O371       Ni374   1.900       .  S
O371        C376   1.277       .  A
O372       Ni374   1.905       .  S
O372        C375   1.278       .  A
Ni373      Ni374   2.390       .  S
C375        C618   1.479       .  S
C376       C1335   1.468       .  S
C377        C604   1.480       .  S
C378        C691   1.476       .  S
O379       Ni387   1.935       .  S
O379        C389   1.285       .  A
O380       Ni387   1.928       .  S
O380        C390   1.282       .  A
O381       Ni387   1.909       .  S
O381        C391   1.279       .  A
O382       Ni387   1.906       .  S
O382        C392   1.279       .  A
O383       Ni388   1.929       .  S
O383        C392   1.283       .  A
O384       Ni388   1.926       .  S
O384        C391   1.285       .  A
O385       Ni388   1.905       .  S
O385        C390   1.278       .  A
O386       Ni388   1.905       .  S
O386        C389   1.278       .  A
Ni387      Ni388   2.389       .  S
C389        C621   1.481       .  S
C390        C817   1.467       .  S
C391        C632   1.488       .  S
C392       C1237   1.474       .  S
O393       Ni401   1.927       .  S
O393        C403   1.284       .  A
O394       Ni401   1.923       .  S
O394        C404   1.281       .  A
O395       Ni401   1.907       .  S
O395        C405   1.279       .  A
O396       Ni401   1.906       .  S
O396        C406   1.279       .  A
O397       Ni402   1.926       .  S
O397        C406   1.284       .  A
O398       Ni402   1.928       .  S
O398        C405   1.283       .  A
O399       Ni402   1.897       .  S
O399        C404   1.278       .  A
O400       Ni402   1.901       .  S
O400        C403   1.277       .  A
Ni401      Ni402   2.391       .  S
C403        C590   1.472       .  S
C404       C1486   1.463       .  S
C405        C856   1.472       .  S
C406        C607   1.481       .  S
O407       Ni415   1.929       .  S
O407        C417   1.283       .  A
O408       Ni415   1.925       .  S
O408        C418   1.282       .  A
O409       Ni415   1.905       .  S
O409        C419   1.279       .  A
O410       Ni415   1.905       .  S
O410        C420   1.279       .  A
O411       Ni416   1.924       .  S
O411        C420   1.283       .  A
O412       Ni416   1.925       .  S
O412        C419   1.282       .  A
O413       Ni416   1.904       .  S
O413        C418   1.278       .  A
O414       Ni416   1.906       .  S
O414        C417   1.279       .  A
Ni415      Ni416   2.390       .  S
C417        C593   1.478       .  S
C418        C719   1.468       .  S
C419       C1167   1.474       .  S
C420        C576   1.480   1_455  S
O421       Ni429   1.934       .  S
O421        C431   1.285       .  A
O422       Ni429   1.930       .  S
O422        C432   1.283       .  A
O423       Ni429   1.908       .  S
O423        C433   1.279       .  A
O424       Ni429   1.907       .  S
O424        C434   1.279       .  A
O425       Ni430   1.924       .  S
O425        C434   1.282       .  A
O426       Ni430   1.921       .  S
O426        C433   1.284       .  A
O427       Ni430   1.904       .  S
O427        C432   1.278       .  A
O428       Ni430   1.906       .  S
O428        C431   1.278       .  A
Ni429      Ni430   2.390       .  S
C431        C562   1.479       .  S
C432        C929   1.469       .  S
C433        C579   1.480       .  S
C434       C1111   1.473       .  S
O435       Ni443   1.932   1_655  S
O435        C445   1.284   1_655  A
O436       Ni443   1.926       .  S
O436        C446   1.282       .  A
O437       Ni443   1.903       .  S
O437        C447   1.278       .  A
O438       Ni443   1.901       .  S
O438        C448   1.278       .  A
O439       Ni444   1.928       .  S
O439        C448   1.283       .  A
O440       Ni444   1.925       .  S
O440        C447   1.284       .  A
O441       Ni444   1.905       .  S
O441        C446   1.279       .  A
O442       Ni444   1.910       .  S
O442        C445   1.279       .  A
Ni443      Ni444   2.389       .  S
C445        C565   1.482   1_455  S
C446       C1290   1.472       .  S
C447        C548   1.480       .  S
C448        C775   1.472   1_455  S
O449       Ni457   1.933       .  S
O449        C459   1.284       .  A
O450       Ni457   1.928       .  S
O450        C460   1.282       .  A
O451       Ni457   1.904       .  S
O451        C461   1.279       .  A
O452       Ni457   1.909       .  S
O452        C462   1.279       .  A
O453       Ni458   1.928       .  S
O453        C462   1.285       .  A
O454       Ni458   1.930       .  S
O454        C461   1.283       .  A
O455       Ni458   1.900       .  S
O455        C460   1.277       .  A
O456       Ni458   1.904       .  S
O456        C459   1.277       .  A
Ni457      Ni458   2.391       .  S
C459        C534   1.473       .  S
C460        C842   1.465       .  S
C461       C1419   1.474       .  S
C462        C523   1.482       .  S
O463       Ni471   1.935       .  S
O463        C473   1.286       .  A
O464       Ni471   1.931       .  S
O464        C474   1.283       .  A
O465       Ni471   1.900       .  S
O465        C475   1.278       .  A
O466       Ni471   1.901       .  S
O466        C476   1.277       .  A
O467       Ni472   1.925       .  S
O467        C476   1.284       .  A
O468       Ni472   1.930       .  S
O468        C475   1.284       .  A
O469       Ni472   1.899       .  S
O469        C474   1.277       .  A
O470       Ni472   1.904       .  S
O470        C473   1.278       .  A
Ni471      Ni472   2.388       .  S
C473        C537   1.485       .  S
C474       C1066   1.468       .  S
C475        C971   1.477       .  S
C476        C551   1.480       .  S
O477       Ni485   1.942       .  S
O477        C487   1.287       .  A
O478       Ni485   1.938       .  S
O478        C488   1.285       .  A
O479       Ni485   1.905       .  S
O479        C489   1.278       .  A
O480       Ni485   1.902       .  S
O480        C490   1.277       .  A
O481       Ni486   1.933       .  S
O481        C490   1.285       .  A
O482       Ni486   1.932       .  S
O482        C489   1.285       .  A
O483       Ni486   1.906       .  S
O483        C488   1.278       .  A
O484       Ni486   1.912       .  S
O484        C487   1.280       .  A
Ni485      Ni486   2.386       .  S
C487        C506   1.496       .  S
C488        C677   1.478       .  S
C489        C520   1.482       .  S
C490       C1363   1.479   1_554  S
O491       Ni499   1.938       .  S
O491        C501   1.285       .  A
O492       Ni499   1.930       .  S
O492        C502   1.283       .  A
O493       Ni499   1.900       .  S
O493        C503   1.278       .  A
O494       Ni499   1.899       .  S
O494        C504   1.277       .  A
O495       Ni500   1.925       .  S
O495        C504   1.283       .  A
O496       Ni500   1.926       .  S
O496        C503   1.283       .  A
O497       Ni500   1.910       .  S
O497        C502   1.279       .  A
O498       Ni500   1.913       .  S
O498        C501   1.279       .  A
Ni499      Ni500   2.388       .  S
C501        C509   1.483       .  S
C502       C1097   1.472       .  S
C503        C663   1.486       .  S
C504        C887   1.471       .  S
C505        C506   1.410       .  A
C505        C510   1.402       .  A
C505        H512   1.084       .  S
C506        C507   1.415       .  A
C507        C508   1.413       .  A
C507        N514   1.437       .  S
C508        C509   1.406       .  A
C508        H513   1.084       .  S
C509        C510   1.409       .  A
C510        N511   1.433       .  S
N511        H515   1.046       .  S
N511        H516   1.045       .  S
N514        H517   1.045       .  S
N514        H518   1.046       .  S
C519        C520   1.403       .  A
C519        C524   1.407       .  A
C519        H526   1.083       .  S
C520        C521   1.414       .  A
C521        C522   1.406       .  A
C521        N528   1.438       .  S
C522        C523   1.403       .  A
C522        H527   1.084       .  S
C523        C524   1.414       .  A
C524        N525   1.438       .  S
N525        H529   1.045       .  S
N525        H530   1.046       .  S
N528        H531   1.046       .  S
N528        H532   1.046       .  S
C533        C534   1.398       .  A
C533        C538   1.404   1_545  A
C533        H540   1.084       .  S
C534        C535   1.414   1_545  A
C535        C536   1.400       .  A
C535        N542   1.432   1_565  S
C536        C537   1.403       .  A
C536        H541   1.084       .  S
C537        C538   1.417       .  A
C538        N539   1.432       .  S
N539        H543   1.046       .  S
N539        H544   1.046       .  S
N542        H545   1.045       .  S
N542        H546   1.045       .  S
C547        C548   1.402       .  A
C547        C552   1.401       .  A
C547        H554   1.084       .  S
C548        C549   1.415       .  A
C549        C550   1.405       .  A
C549        N556   1.438       .  S
C550        C551   1.403       .  A
C550        H555   1.083       .  S
C551        C552   1.412       .  A
C552        N553   1.433       .  S
N553        H557   1.045       .  S
N553        H558   1.046       .  S
N556        H559   1.045       .  S
N556        H560   1.046       .  S
C561        C562   1.406       .  A
C561        C566   1.401       .  A
C561        H568   1.084       .  S
C562        C563   1.409       .  A
C563        C564   1.408       .  A
C563        N570   1.438       .  S
C564        C565   1.407       .  A
C564        H569   1.084       .  S
C565        C566   1.413       .  A
C566        N567   1.432       .  S
N567        H571   1.045   1_655  S
N567        H572   1.045       .  S
N570        H573   1.045       .  S
N570        H574   1.046       .  S
C575        C576   1.404       .  A
C575        C580   1.405       .  A
C575        H582   1.084       .  S
C576        C577   1.412   1_655  A
C577        C578   1.400   1_455  A
C577        N584   1.433       .  S
C578        C579   1.402       .  A
C578        H583   1.084       .  S
C579        C580   1.413       .  A
C580        N581   1.433       .  S
N581        H585   1.046       .  S
N581        H586   1.046       .  S
N584        H587   1.046       .  S
N584        H588   1.046       .  S
C589        C590   1.405       .  A
C589        C594   1.407   1_655  A
C589        H596   1.084       .  S
C590        C591   1.407       .  A
C591        C592   1.403   1_655  A
C591        N598   1.438       .  S
C592        C593   1.406       .  A
C592        H597   1.083       .  S
C593        C594   1.411       .  A
C594        N595   1.438       .  S
N595        H599   1.046       .  S
N595        H600   1.045       .  S
N598        H601   1.046       .  S
N598        H602   1.046       .  S
C603        C604   1.403       .  A
C603        C608   1.405       .  A
C603        H610   1.084       .  S
C604        C605   1.411       .  A
C605        C606   1.403       .  A
C605        N612   1.433       .  S
C606        C607   1.403       .  A
C606        H611   1.084       .  S
C607        C608   1.413       .  A
C608        N609   1.433       .  S
N609        H613   1.045       .  S
N609        H614   1.046       .  S
N612        H615   1.046       .  S
N612        H616   1.046       .  S
C617        C618   1.407       .  A
C617        C622   1.408   1_545  A
C617        H624   1.084       .  S
C618        C619   1.409       .  A
C619        C620   1.407   1_545  A
C619        N626   1.438       .  S
C620        C621   1.407       .  A
C620        H625   1.084       .  S
C621        C622   1.410       .  A
C622        N623   1.438       .  S
N623        H627   1.046       .  S
N623        H628   1.046       .  S
N626        H629   1.045       .  S
N626        H630   1.046       .  S
C631        C632   1.404       .  A
C631        C636   1.406       .  A
C631        H638   1.083       .  S
C632        C633   1.416       .  A
C633        C634   1.407       .  A
C633        N640   1.438       .  S
C634        C635   1.405       .  A
C634        H639   1.084       .  S
C635        C636   1.416       .  A
C636        N637   1.438       .  S
N637        H641   1.046       .  S
N637        H642   1.046       .  S
N640        H643   1.045       .  S
N640        H644   1.046       .  S
C645        C646   1.406       .  A
C645        C650   1.406       .  A
C645        H652   1.084       .  S
C646        C647   1.410       .  A
C647        C648   1.409       .  A
C647        N654   1.438       .  S
C648        C649   1.407       .  A
C648        H653   1.084       .  S
C649        C650   1.409       .  A
C650        N651   1.438       .  S
N651        H655   1.046       .  S
N651        H656   1.045       .  S
N654        H657   1.046       .  S
N654        H658   1.046   1_556  S
C659        C660   1.408   1_554  A
C659        C664   1.398       .  A
C659        H666   1.084       .  S
C660        C661   1.412       .  A
C661        C662   1.403       .  A
C661        N668   1.438       .  S
C662        C663   1.408   1_556  A
C662        H667   1.083       .  S
C663        C664   1.416       .  A
C664        N665   1.432       .  S
N665        H669   1.045       .  S
N665        H670   1.045       .  S
N668        H671   1.045       .  S
N668        H672   1.046       .  S
C673        C674   1.401   1_545  A
C673        C678   1.405       .  A
C673        H680   1.084   1_545  S
C674        C675   1.417   1_565  A
C675        C676   1.402       .  A
C675        N682   1.433   1_545  S
C676        C677   1.401       .  A
C676        H681   1.084       .  S
C677        C678   1.419       .  A
C678        N679   1.439       .  S
N679        H683   1.046       .  S
N679        H684   1.043       .  S
N682        H685   1.045       .  S
N682        H686   1.044   1_554  S
C687        C688   1.403       .  A
C687        C692   1.404       .  A
C687        H694   1.084       .  S
C688        C689   1.408       .  A
C689        C690   1.409       .  A
C689        N696   1.437       .  S
C690        C691   1.407       .  A
C690        H695   1.084       .  S
C691        C692   1.409       .  A
C692        N693   1.438       .  S
N693        H697   1.046       .  S
N693        H698   1.045       .  S
N696        H699   1.045       .  S
N696        H700   1.046       .  S
C701        C702   1.408   1_565  A
C701        C706   1.401       .  A
C701        H708   1.084       .  S
C702        C703   1.418       .  A
C703        C704   1.406       .  A
C703        N710   1.432       .  S
C704        C705   1.403   1_545  A
C704        H709   1.084       .  S
C705        C706   1.407       .  A
C706        N707   1.439       .  S
N707        H711   1.046       .  S
N707        H712   1.046       .  S
N710        H713   1.046       .  S
N710        H714   1.045       .  S
C715        C716   1.403       .  A
C715        C720   1.407       .  A
C715        H722   1.084       .  S
C716        C717   1.411       .  A
C717        C718   1.402       .  A
C717        N724   1.432       .  S
C718        C719   1.399       .  A
C718        H723   1.084       .  S
C719        C720   1.411       .  A
C720        N721   1.439       .  S
N721        H725   1.046       .  S
N721        H726   1.045       .  S
N724        H727   1.046       .  S
N724        H728   1.046       .  S
C729        C730   1.403       .  A
C729        C734   1.408       .  A
C729        H736   1.084       .  S
C730        C731   1.413       .  A
C731        C732   1.402       .  A
C731        N738   1.433       .  S
C732        C733   1.402       .  A
C732        H737   1.084       .  S
C733        C734   1.418       .  A
C734        N735   1.438       .  S
N735        H739   1.046       .  S
N735        H740   1.046       .  S
N738        H741   1.046       .  S
N738        H742   1.046       .  S
C743        C744   1.404       .  A
C743        C748   1.407       .  A
C743        H750   1.084       .  S
C744        C745   1.415       .  A
C745        C746   1.401       .  A
C745        N752   1.439       .  S
C746        C747   1.405       .  A
C746        H751   1.084       .  S
C747        C748   1.411       .  A
C748        N749   1.438       .  S
N749        H753   1.046       .  S
N749        H754   1.046       .  S
N752        H755   1.042       .  S
N752        H756   1.045       .  S
C757        C758   1.405       .  A
C757        C762   1.405   1_655  A
C757        H764   1.084       .  S
C758        C759   1.410       .  A
C759        C760   1.410       .  A
C759        N766   1.438       .  S
C760        C761   1.408   1_655  A
C760        H765   1.084   1_655  S
C761        C762   1.407       .  A
C762        N763   1.432       .  S
N763        H767   1.046       .  S
N763        H768   1.046       .  S
N766        H769   1.046       .  S
N766        H770   1.046       .  S
C771        C772   1.406       .  A
C771        C776   1.404       .  A
C771        H778   1.084       .  S
C772        C773   1.415       .  A
C773        C774   1.401       .  A
C773        N780   1.437       .  S
C774        C775   1.403       .  A
C774        H779   1.084       .  S
C775        C776   1.407       .  A
C776        N777   1.438       .  S
N777        H781   1.046       .  S
N777        H782   1.045       .  S
N780        H783   1.041       .  S
N780        H784   1.045       .  S
C785        C786   1.404       .  A
C785        C790   1.401       .  A
C785        H792   1.084       .  S
C786        C787   1.415       .  A
C787        C788   1.399       .  A
C787        N794   1.433       .  S
C788        C789   1.403       .  A
C788        H793   1.084       .  S
C789        C790   1.414       .  A
C790        N791   1.433       .  S
N791        H795   1.046       .  S
N791        H796   1.046       .  S
N794        H797   1.046       .  S
N794        H798   1.046       .  S
C799        C800   1.404       .  A
C799        C804   1.408       .  A
C799        H806   1.084       .  S
C800        C801   1.413       .  A
C801        C802   1.403       .  A
C801        N808   1.439       .  S
C802        C803   1.402       .  A
C802        H807   1.084       .  S
C803        C804   1.410       .  A
C804        N805   1.437       .  S
N805        H809   1.046       .  S
N805        H810   1.046       .  S
N808        H811   1.046       .  S
N808        H812   1.046       .  S
C813        C814   1.403       .  A
C813        C818   1.408       .  A
C813        H820   1.084       .  S
C814        C815   1.410       .  A
C815        C816   1.400       .  A
C815        N822   1.432       .  S
C816        C817   1.398       .  A
C816        H821   1.084       .  S
C817        C818   1.410       .  A
C818        N819   1.437       .  S
N819        H823   1.046       .  S
N819        H824   1.046       .  S
N822        H825   1.045       .  S
N822        H826   1.046       .  S
C827        C828   1.408       .  A
C827        C832   1.401       .  A
C827        H834   1.083       .  S
C828        C829   1.411       .  A
C829        C830   1.399       .  A
C829        N836   1.433       .  S
C830        C831   1.406       .  A
C830        H835   1.084       .  S
C831        C832   1.410       .  A
C832        N833   1.433       .  S
N833        H837   1.046       .  S
N833        H838   1.046       .  S
N836        H839   1.046       .  S
N836        H840   1.045       .  S
C841        C842   1.399       .  A
C841        C846   1.401       .  A
C841        H848   1.083       .  S
C842        C843   1.409       .  A
C843        C844   1.405       .  A
C843        N850   1.438       .  S
C844        C845   1.402       .  A
C844        H849   1.084       .  S
C845        C846   1.410       .  A
C846        N847   1.433       .  S
N847        H851   1.045       .  S
N847        H852   1.046       .  S
N850        H853   1.046       .  S
N850        H854   1.046       .  S
C855        C856   1.401   1_455  A
C855        C860   1.403       .  A
C855        H862   1.084       .  S
C856        C857   1.408   1_655  A
C857        C858   1.403       .  A
C857        N864   1.432   1_455  S
C858        C859   1.401       .  A
C858        H863   1.084       .  S
C859        C860   1.418       .  A
C860        N861   1.440       .  S
N861        H865   1.045       .  S
N861        H866   1.044       .  S
N864        H867   1.046   1_655  S
N864        H868   1.046       .  S
C869        C870   1.407       .  A
C869        C874   1.399       .  A
C869        H876   1.084       .  S
C870        C871   1.411       .  A
C871        C872   1.410       .  A
C871        N878   1.437       .  S
C872        C873   1.408       .  A
C872        H877   1.084       .  S
C873        C874   1.415       .  A
C874        N875   1.440       .  S
N875        H879   1.046       .  S
N875        H880   1.041       .  S
N878        H881   1.045       .  S
N878        H882   1.046       .  S
C883        C884   1.403       .  A
C883        C888   1.404       .  A
C883        H890   1.084       .  S
C884        C885   1.408       .  A
C885        C886   1.398       .  A
C885        N892   1.432       .  S
C886        C887   1.406       .  A
C886        H891   1.084       .  S
C887        C888   1.409       .  A
C888        N889   1.438       .  S
N889        H893   1.046       .  S
N889        H894   1.045       .  S
N892        H895   1.045       .  S
N892        H896   1.046       .  S
C897        C898   1.408       .  A
C897        C902   1.402       .  A
C897        H904   1.083       .  S
C898        C899   1.412       .  A
C899        C900   1.405       .  A
C899        N906   1.432       .  S
C900        C901   1.408       .  A
C900        H905   1.084       .  S
C901        C902   1.411       .  A
C902        N903   1.432       .  S
N903        H907   1.046       .  S
N903        H908   1.046       .  S
N906        H909   1.045       .  S
N906        H910   1.046       .  S
C911        C912   1.402       .  A
C911        C916   1.402   1_655  A
C911        H918   1.084       .  S
C912        C913   1.416       .  A
C913        C914   1.406   1_655  A
C913        N920   1.432       .  S
C914        C915   1.404       .  A
C914        H919   1.084       .  S
C915        C916   1.412       .  A
C916        N917   1.439       .  S
N917        H921   1.046       .  S
N917        H922   1.046       .  S
N920        H923   1.046       .  S
N920        H924   1.045       .  S
C925        C926   1.405       .  A
C925        C930   1.396       .  A
C925        H932   1.084       .  S
C926        C927   1.411       .  A
C927        C928   1.409       .  A
C927        N934   1.437       .  S
C928        C929   1.404       .  A
C928        H933   1.084       .  S
C929        C930   1.408       .  A
C930        N931   1.432       .  S
N931        H935   1.046       .  S
N931        H936   1.045       .  S
N934        H937   1.045       .  S
N934        H938   1.046       .  S
C939        C940   1.403       .  A
C939        C944   1.406       .  A
C939        H946   1.084       .  S
C940        C941   1.415       .  A
C941        C942   1.406       .  A
C941        N948   1.438       .  S
C942        C943   1.405       .  A
C942        H947   1.083       .  S
C943        C944   1.416       .  A
C944        N945   1.438       .  S
N945        H949   1.046       .  S
N945        H950   1.046       .  S
N948        H951   1.046       .  S
N948        H952   1.046       .  S
C953        C954   1.400       .  A
C953        C958   1.401       .  A
C953        H960   1.084       .  S
C954        C955   1.417       .  A
C955        C956   1.401       .  A
C955        N962   1.439       .  S
C956        C957   1.400       .  A
C956        H961   1.084       .  S
C957        C958   1.409       .  A
C958        N959   1.433   1_556  S
N959        H963   1.046   1_554  S
N959        H964   1.046       .  S
N962        H965   1.044       .  S
N962        H966   1.046       .  S
C967        C968   1.403       .  A
C967        C972   1.406       .  A
C967        H974   1.084       .  S
C968        C969   1.414       .  A
C969        C970   1.399       .  A
C969        N976   1.439       .  S
C970        C971   1.405       .  A
C970        H975   1.084       .  S
C971        C972   1.411       .  A
C972        N973   1.437       .  S
N973        H977   1.046       .  S
N973        H978   1.045       .  S
N976        H979   1.042       .  S
N976        H980   1.045       .  S
C981        C982   1.407   1_554  A
C981        C986   1.405   1_545  A
C981        H988   1.083       .  S
C982        C983   1.413   1_545  A
C983        C984   1.411       .  A
C983        N990   1.438       .  S
C984        C985   1.409   1_556  A
C984        H989   1.083       .  S
C985        C986   1.414       .  A
C986        N987   1.438   1_565  S
N987        H991   1.045       .  S
N987        H992   1.045       .  S
N990        H993   1.046       .  S
N990        H994   1.045       .  S
C995        C996   1.408       .  A
C995       C1000   1.410       .  A
C995       H1002   1.084       .  S
C996        C997   1.410       .  A
C997        C998   1.398   1_565  A
C997       N1004   1.438   1_565  S
C998        C999   1.402   1_545  A
C998       H1003   1.084       .  S
C999       C1000   1.416       .  A
C1000      N1001   1.432       .  S
N1001      H1005   1.045       .  S
N1001      H1006   1.046       .  S
N1004      H1007   1.045       .  S
N1004      H1008   1.046       .  S
C1009      C1010   1.399       .  A
C1009      C1014   1.403       .  A
C1009      H1016   1.084       .  S
C1010      C1011   1.408       .  A
C1011      C1012   1.402       .  A
C1011      N1018   1.433       .  S
C1012      C1013   1.401       .  A
C1012      H1017   1.084       .  S
C1013      C1014   1.411       .  A
C1014      N1015   1.433   1_554  S
N1015      H1019   1.046       .  S
N1015      H1020   1.046   1_556  S
N1018      H1021   1.045       .  S
N1018      H1022   1.046       .  S
C1023      C1024   1.402   1_455  A
C1023      C1028   1.403       .  A
C1023      H1030   1.083   1_455  S
C1024      C1025   1.413   1_655  A
C1025      C1026   1.406       .  A
C1025      N1032   1.437   1_456  S
C1026      C1027   1.399       .  A
C1026      H1031   1.084       .  S
C1027      C1028   1.408       .  A
C1028      N1029   1.433       .  S
N1029      H1033   1.046       .  S
N1029      H1034   1.046       .  S
N1032      H1035   1.046       .  S
N1032      H1036   1.046       .  S
C1037      C1038   1.403       .  A
C1037      C1042   1.404       .  A
C1037      H1044   1.084       .  S
C1038      C1039   1.411       .  A
C1039      C1040   1.400       .  A
C1039      N1046   1.433       .  S
C1040      C1041   1.398       .  A
C1040      H1045   1.082       .  S
C1041      C1042   1.417       .  A
C1042      N1043   1.439       .  S
N1043      H1047   1.045       .  S
N1043      H1048   1.044       .  S
N1046      H1049   1.046       .  S
N1046      H1050   1.045       .  S
C1051      C1052   1.399       .  A
C1051      C1056   1.406   1_655  A
C1051      H1058   1.084       .  S
C1052      C1053   1.416       .  A
C1053      C1054   1.401   1_655  A
C1053      N1060   1.433       .  S
C1054      C1055   1.402       .  A
C1054      H1059   1.084       .  S
C1055      C1056   1.417       .  A
C1056      N1057   1.438       .  S
N1057      H1061   1.046   1_455  S
N1057      H1062   1.045       .  S
N1060      H1063   1.045   1_655  S
N1060      H1064   1.044       .  S
C1065      C1066   1.398       .  A
C1065      C1070   1.398       .  A
C1065      H1072   1.084       .  S
C1066      C1067   1.417       .  A
C1067      C1068   1.402       .  A
C1067      N1074   1.439       .  S
C1068      C1069   1.402       .  A
C1068      H1073   1.084       .  S
C1069      C1070   1.417       .  A
C1070      N1071   1.432       .  S
N1071      H1075   1.044       .  S
N1071      H1076   1.044       .  S
N1074      H1077   1.044       .  S
N1074      H1078   1.046       .  S
C1079      C1080   1.403       .  A
C1079      C1084   1.406       .  A
C1079      H1086   1.084       .  S
C1080      C1081   1.407       .  A
C1081      C1082   1.404       .  A
C1081      N1088   1.438       .  S
C1082      C1083   1.405       .  A
C1082      H1087   1.083       .  S
C1083      C1084   1.411       .  A
C1084      N1085   1.438       .  S
N1085      H1089   1.046       .  S
N1085      H1090   1.046       .  S
N1088      H1091   1.046       .  S
N1088      H1092   1.045       .  S
C1093      C1094   1.406       .  A
C1093      C1098   1.404       .  A
C1093      H1100   1.084       .  S
C1094      C1095   1.412       .  A
C1095      C1096   1.410       .  A
C1095      N1102   1.437       .  S
C1096      C1097   1.403       .  A
C1096      H1101   1.084       .  S
C1097      C1098   1.407       .  A
C1098      N1099   1.438       .  S
N1099      H1103   1.046       .  S
N1099      H1104   1.045       .  S
N1102      H1105   1.046       .  S
N1102      H1106   1.045       .  S
C1107      C1108   1.399       .  A
C1107      C1112   1.401       .  A
C1107      H1114   1.084       .  S
C1108      C1109   1.410       .  A
C1109      C1110   1.405       .  A
C1109      N1116   1.438       .  S
C1110      C1111   1.403       .  A
C1110      H1115   1.084       .  S
C1111      C1112   1.410       .  A
C1112      N1113   1.432       .  S
N1113      H1117   1.046       .  S
N1113      H1118   1.046       .  S
N1116      H1119   1.046       .  S
N1116      H1120   1.046       .  S
C1121      C1122   1.409       .  A
C1121      C1126   1.397       .  A
C1121      H1128   1.083       .  S
C1122      C1123   1.417       .  A
C1123      C1124   1.401       .  A
C1123      N1130   1.432       .  S
C1124      C1125   1.410       .  A
C1124      H1129   1.083       .  S
C1125      C1126   1.417       .  A
C1126      N1127   1.432       .  S
N1127      H1131   1.046       .  S
N1127      H1132   1.045       .  S
N1130      H1133   1.044       .  S
N1130      H1134   1.046       .  S
C1135      C1136   1.400       .  A
C1135      C1140   1.402       .  A
C1135      H1142   1.084       .  S
C1136      C1137   1.414       .  A
C1137      C1138   1.409       .  A
C1137      N1144   1.436       .  S
C1138      C1139   1.401       .  A
C1138      H1143   1.084       .  S
C1139      C1140   1.411       .  A
C1140      N1141   1.433       .  S
N1141      H1145   1.046       .  S
N1141      H1146   1.046       .  S
N1144      H1147   1.046       .  S
N1144      H1148   1.043       .  S
C1149      C1150   1.405       .  A
C1149      C1154   1.404       .  A
C1149      H1156   1.084       .  S
C1150      C1151   1.410       .  A
C1151      C1152   1.405       .  A
C1151      N1158   1.436       .  S
C1152      C1153   1.402       .  A
C1152      H1157   1.084       .  S
C1153      C1154   1.406       .  A
C1154      N1155   1.438       .  S
N1155      H1159   1.045       .  S
N1155      H1160   1.046       .  S
N1158      H1161   1.043       .  S
N1158      H1162   1.048       .  S
C1163      C1164   1.402       .  A
C1163      C1168   1.397       .  A
C1163      H1170   1.085       .  S
C1164      C1165   1.407       .  A
C1165      C1166   1.406       .  A
C1165      N1172   1.438       .  S
C1166      C1167   1.406       .  A
C1166      H1171   1.084       .  S
C1167      C1168   1.412       .  A
C1168      N1169   1.432       .  S
N1169      H1173   1.045       .  S
N1169      H1174   1.045       .  S
N1172      H1175   1.045       .  S
N1172      H1176   1.046       .  S
C1177      C1178   1.406       .  A
C1177      C1182   1.402       .  A
C1177      H1184   1.084       .  S
C1178      C1179   1.414       .  A
C1179      C1180   1.406       .  A
C1179      N1186   1.436       .  S
C1180      C1181   1.401       .  A
C1180      H1185   1.084       .  S
C1181      C1182   1.403       .  A
C1182      N1183   1.436       .  S
N1183      H1187   1.046       .  S
N1183      H1188   1.046       .  S
N1186      H1189   1.040       .  S
N1186      H1190   1.046       .  S
C1191      C1192   1.404       .  A
C1191      C1196   1.409       .  A
C1191      H1198   1.084       .  S
C1192      C1193   1.411       .  A
C1193      C1194   1.401       .  A
C1193      N1200   1.432       .  S
C1194      C1195   1.398       .  A
C1194      H1199   1.083       .  S
C1195      C1196   1.411       .  A
C1196      N1197   1.438       .  S
N1197      H1201   1.045       .  S
N1197      H1202   1.046       .  S
N1200      H1203   1.046       .  S
N1200      H1204   1.045       .  S
C1205      C1206   1.400       .  A
C1205      C1210   1.409       .  A
C1205      H1212   1.084       .  S
C1206      C1207   1.417       .  A
C1207      C1208   1.398       .  A
C1207      N1214   1.429       .  S
C1208      C1209   1.398       .  A
C1208      H1213   1.084       .  S
C1209      C1210   1.417       .  A
C1210      N1211   1.437       .  S
N1211      H1215   1.046       .  S
N1211      H1216   1.045       .  S
N1214      H1217   1.045       .  S
N1214      H1218   1.044       .  S
C1219      C1220   1.402       .  A
C1219      C1224   1.401       .  A
C1219      H1226   1.083       .  S
C1220      C1221   1.413       .  A
C1221      C1222   1.403       .  A
C1221      N1228   1.437       .  S
C1222      C1223   1.398       .  A
C1222      H1227   1.084       .  S
C1223      C1224   1.415       .  A
C1224      N1225   1.433       .  S
N1225      H1229   1.045       .  S
N1225      H1230   1.046       .  S
N1228      H1231   1.045       .  S
N1228      H1232   1.046       .  S
C1233      C1234   1.404       .  A
C1233      C1238   1.405       .  A
C1233      H1240   1.084       .  S
C1234      C1235   1.408       .  A
C1235      C1236   1.407       .  A
C1235      N1242   1.438       .  S
C1236      C1237   1.405       .  A
C1236      H1241   1.084       .  S
C1237      C1238   1.409       .  A
C1238      N1239   1.438       .  S
N1239      H1243   1.046       .  S
N1239      H1244   1.045       .  S
N1242      H1245   1.046       .  S
N1242      H1246   1.046       .  S
C1247      C1248   1.406       .  A
C1247      C1252   1.406       .  A
C1247      H1254   1.084       .  S
C1248      C1249   1.412       .  A
C1249      C1250   1.410       .  A
C1249      N1256   1.437       .  S
C1250      C1251   1.404       .  A
C1250      H1255   1.084       .  S
C1251      C1252   1.407       .  A
C1252      N1253   1.438       .  S
N1253      H1257   1.046       .  S
N1253      H1258   1.045       .  S
N1256      H1259   1.045       .  S
N1256      H1260   1.046       .  S
C1261      C1262   1.403       .  A
C1261      C1266   1.399       .  A
C1261      H1268   1.084       .  S
C1262      C1263   1.414       .  A
C1263      C1264   1.405       .  A
C1263      N1270   1.438       .  S
C1264      C1265   1.399       .  A
C1264      H1269   1.083       .  S
C1265      C1266   1.411       .  A
C1266      N1267   1.433       .  S
N1267      H1271   1.045       .  S
N1267      H1272   1.046       .  S
N1270      H1273   1.046       .  S
N1270      H1274   1.046       .  S
C1275      C1276   1.405       .  A
C1275      C1280   1.402       .  A
C1275      H1282   1.084       .  S
C1276      C1277   1.406       .  A
C1277      C1278   1.406       .  A
C1277      N1284   1.438       .  S
C1278      C1279   1.409       .  A
C1278      H1283   1.084       .  S
C1279      C1280   1.413       .  A
C1280      N1281   1.432       .  S
N1281      H1285   1.045       .  S
N1281      H1286   1.045       .  S
N1284      H1287   1.046       .  S
N1284      H1288   1.046       .  S
C1289      C1290   1.401       .  A
C1289      C1294   1.405       .  A
C1289      H1296   1.084       .  S
C1290      C1291   1.412       .  A
C1291      C1292   1.404       .  A
C1291      N1298   1.438       .  S
C1292      C1293   1.400       .  A
C1292      H1297   1.084       .  S
C1293      C1294   1.411       .  A
C1294      N1295   1.437       .  S
N1295      H1299   1.046       .  S
N1295      H1300   1.045   1_565  S
N1298      H1301   1.046       .  S
N1298      H1302   1.046       .  S
C1303      C1304   1.404       .  A
C1303      C1308   1.405       .  A
C1303      H1310   1.084       .  S
C1304      C1305   1.416       .  A
C1305      C1306   1.404       .  A
C1305      N1312   1.433       .  S
C1306      C1307   1.403       .  A
C1306      H1311   1.084       .  S
C1307      C1308   1.417       .  A
C1308      N1309   1.433       .  S
N1309      H1313   1.046       .  S
N1309      H1314   1.046       .  S
N1312      H1315   1.046       .  S
N1312      H1316   1.046       .  S
C1317      C1318   1.401       .  A
C1317      C1322   1.404       .  A
C1317      H1324   1.084       .  S
C1318      C1319   1.407       .  A
C1319      C1320   1.403       .  A
C1319      N1326   1.438       .  S
C1320      C1321   1.404       .  A
C1320      H1325   1.084       .  S
C1321      C1322   1.411       .  A
C1322      N1323   1.438       .  S
N1323      H1327   1.046       .  S
N1323      H1328   1.045       .  S
N1326      H1329   1.045       .  S
N1326      H1330   1.046       .  S
C1331      C1332   1.404       .  A
C1331      C1336   1.405       .  A
C1331      H1338   1.083       .  S
C1332      C1333   1.408       .  A
C1333      C1334   1.403       .  A
C1333      N1340   1.438       .  S
C1334      C1335   1.403       .  A
C1334      H1339   1.084       .  S
C1335      C1336   1.408       .  A
C1336      N1337   1.438       .  S
N1337      H1341   1.046       .  S
N1337      H1342   1.046       .  S
N1340      H1343   1.045       .  S
N1340      H1344   1.046       .  S
C1345      C1346   1.408   1_554  A
C1345      C1350   1.407       .  A
C1345      H1352   1.083       .  S
C1346      C1347   1.418       .  A
C1347      C1348   1.398   1_656  A
C1347      N1354   1.433   1_655  S
C1348      C1349   1.407   1_455  A
C1348      H1353   1.084   1_554  S
C1349      C1350   1.414       .  A
C1350      N1351   1.438       .  S
N1351      H1355   1.045       .  S
N1351      H1356   1.046       .  S
N1354      H1357   1.046   1_455  S
N1354      H1358   1.045       .  S
C1359      C1360   1.400       .  A
C1359      C1364   1.399   1_556  A
C1359      H1366   1.084       .  S
C1360      C1361   1.416       .  A
C1361      C1362   1.403       .  A
C1361      N1368   1.439       .  S
C1362      C1363   1.402       .  A
C1362      H1367   1.084       .  S
C1363      C1364   1.418   1_556  A
C1364      N1365   1.434       .  S
N1365      H1369   1.044       .  S
N1365      H1370   1.046       .  S
N1368      H1371   1.044       .  S
N1368      H1372   1.046       .  S
C1373      C1374   1.408       .  A
C1373      C1378   1.408       .  A
C1373      H1380   1.083       .  S
C1374      C1375   1.415       .  A
C1375      C1376   1.407       .  A
C1375      N1382   1.438       .  S
C1376      C1377   1.408       .  A
C1376      H1381   1.083       .  S
C1377      C1378   1.415       .  A
C1378      N1379   1.438       .  S
N1379      H1383   1.046       .  S
N1379      H1384   1.046       .  S
N1382      H1385   1.046       .  S
N1382      H1386   1.046       .  S
C1387      C1388   1.408       .  A
C1387      C1392   1.406       .  A
C1387      H1394   1.084       .  S
C1388      C1389   1.410       .  A
C1389      C1390   1.409       .  A
C1389      N1396   1.437       .  S
C1390      C1391   1.406       .  A
C1390      H1395   1.084       .  S
C1391      C1392   1.407       .  A
C1392      N1393   1.438       .  S
N1393      H1397   1.046       .  S
N1393      H1398   1.045       .  S
N1396      H1399   1.046       .  S
N1396      H1400   1.046   1_556  S
C1401      C1402   1.400       .  A
C1401      C1406   1.408       .  A
C1401      H1408   1.084       .  S
C1402      C1403   1.410       .  A
C1403      C1404   1.402       .  A
C1403      N1410   1.433       .  S
C1404      C1405   1.401       .  A
C1404      H1409   1.084       .  S
C1405      C1406   1.412       .  A
C1406      N1407   1.437       .  S
N1407      H1411   1.046       .  S
N1407      H1412   1.045   1_655  S
N1410      H1413   1.046       .  S
N1410      H1414   1.046       .  S
C1415      C1416   1.399       .  A
C1415      C1420   1.405       .  A
C1415      H1422   1.084       .  S
C1416      C1417   1.408       .  A
C1417      C1418   1.404       .  A
C1417      N1424   1.433       .  S
C1418      C1419   1.401       .  A
C1418      H1423   1.083       .  S
C1419      C1420   1.412       .  A
C1420      N1421   1.437       .  S
N1421      H1425   1.045       .  S
N1421      H1426   1.045       .  S
N1424      H1427   1.046       .  S
N1424      H1428   1.046       .  S
C1429      C1430   1.409       .  A
C1429      C1434   1.404       .  A
C1429      H1436   1.084       .  S
C1430      C1431   1.418       .  A
C1431      C1432   1.404       .  A
C1431      N1438   1.431       .  S
C1432      C1433   1.402       .  A
C1432      H1437   1.084       .  S
C1433      C1434   1.405       .  A
C1434      N1435   1.438       .  S
N1435      H1439   1.045       .  S
N1435      H1440   1.046       .  S
N1438      H1441   1.045       .  S
N1438      H1442   1.043       .  S
C1443      C1444   1.404       .  A
C1443      C1448   1.410       .  A
C1443      H1450   1.083       .  S
C1444      C1445   1.414   1_565  A
C1445      C1446   1.405   1_545  A
C1445      N1452   1.433       .  S
C1446      C1447   1.404       .  A
C1446      H1451   1.084       .  S
C1447      C1448   1.418       .  A
C1448      N1449   1.438       .  S
N1449      H1453   1.046       .  S
N1449      H1454   1.045       .  S
N1452      H1455   1.046       .  S
N1452      H1456   1.046       .  S
C1457      C1458   1.400       .  A
C1457      C1462   1.405       .  A
C1457      H1464   1.084       .  S
C1458      C1459   1.409       .  A
C1459      C1460   1.400       .  A
C1459      N1466   1.433       .  S
C1460      C1461   1.398       .  A
C1460      H1465   1.084       .  S
C1461      C1462   1.410       .  A
C1462      N1463   1.435       .  S
N1463      H1467   1.045       .  S
N1463      H1468   1.045       .  S
N1466      H1469   1.046       .  S
N1466      H1470   1.045       .  S
C1471      C1472   1.404       .  A
C1471      C1476   1.407       .  A
C1471      H1478   1.084       .  S
C1472      C1473   1.419       .  A
C1473      C1474   1.400   1_545  A
C1473      N1480   1.431       .  S
C1474      C1475   1.400       .  A
C1474      H1479   1.084       .  S
C1475      C1476   1.412   1_565  A
C1476      N1477   1.437   1_545  S
N1477      H1481   1.046   1_565  S
N1477      H1482   1.045   1_565  S
N1480      H1483   1.044       .  S
N1480      H1484   1.044   1_545  S
C1485      C1486   1.398       .  A
C1485      C1490   1.398   1_545  A
C1485      H1492   1.084       .  S
C1486      C1487   1.410       .  A
C1487      C1488   1.400       .  A
C1487      N1494   1.438       .  S
C1488      C1489   1.399   1_545  A
C1488      H1493   1.084   1_545  S
C1489      C1490   1.415       .  A
C1490      N1491   1.433       .  S
N1491      H1495   1.044       .  S
N1491      H1496   1.046       .  S
N1494      H1497   1.045       .  S
N1494      H1498   1.046       .  S
C1499      C1500   1.401       .  A
C1499      C1504   1.399       .  A
C1499      H1506   1.084       .  S
C1500      C1501   1.416       .  A
C1501      C1502   1.405       .  A
C1501      N1508   1.438       .  S
C1502      C1503   1.404       .  A
C1502      H1507   1.083       .  S
C1503      C1504   1.414       .  A
C1504      N1505   1.433       .  S
N1505      H1509   1.046       .  S
N1505      H1510   1.046       .  S
N1508      H1511   1.046       .  S
N1508      H1512   1.046       .  S
