geometry optimzed in LAMMPS
_audit_creation_date              2020-12-01 
_audit_creation_method            'lammps2cif' 
_symmetry_space_group_name_H-M    'P1' 
_symmetry_Int_Tables_number       1 
_symmetry_cell_setting            triclinic 
loop_ 
_symmetry_equiv_pos_as_xyz 
  x,y,z 
_cell_length_a                    29.18343477 
_cell_length_b                    32.21834681222805 
_cell_length_c                    30.095863511922694 
_cell_angle_alpha                 89.92291711636761 
_cell_angle_beta                  89.12731064484129 
_cell_angle_gamma                 89.48720162508985 
loop_ 
_atom_site_label 
_atom_site_type_symbol 
_atom_site_fract_x 
_atom_site_fract_y 
_atom_site_fract_z 
_atom_site_charge 
N1          N  0.81197660  0.84598230  0.99122763    -0.02300
C2          C  0.77584655  0.84235997  0.01985914     0.00300
C3          C  0.75709359  0.80319982  0.01725488    -0.22600
C4          C  0.78228314  0.78171138  0.98629645    -0.22800
C5          C  0.81582840  0.80824984  0.97018854     0.00200
H6          H  0.72900060  0.79091494  0.03696306     0.14000
H7          H  0.77523680  0.75045778  0.97538485     0.14000
N8          N  0.76136448  0.11865012  0.00996316    -0.02300
C9          C  0.73103829  0.11137922  0.04443275     0.00300
C10         C  0.69615123  0.08564789  0.03077653    -0.22600
C11         C  0.69728378  0.08717440  0.98556500    -0.22800
C12         C  0.73329353  0.11308211  0.97448255     0.00200
H13         H  0.66670677  0.07579269  0.05021448     0.14000
H14         H  0.66893115  0.07886601  0.96467523     0.14000
N15         N  0.11613325  0.88723403  0.98346699    -0.02300
C16         C  0.12727245  0.85989339  0.01641299     0.00300
C17         C  0.17278399  0.84851645  0.01356187    -0.22600
C18         C  0.19113081  0.86912058  0.97811042    -0.22800
C19         C  0.15610224  0.89250150  0.95952777     0.00200
H20         H  0.19073448  0.82709858  0.03507812     0.14000
H21         H  0.22577484  0.86468614  0.96568638     0.14000
N22         N  0.77036212  0.00540992  0.86149623    -0.02300
C23         C  0.77494298  0.03637324  0.83098935     0.00300
C24         C  0.76876491  0.02204916  0.78817819    -0.22600
C25         C  0.75660294  0.98178540  0.79198424    -0.22800
C26         C  0.75380735  0.97312248  0.83695271     0.00200
H27         H  0.76724766  0.03980329  0.75770718     0.14000
H28         H  0.74385801  0.96295259  0.76515896     0.14000
N29         N  0.92985963  0.14243782  0.84290505    -0.02300
C30         C  0.88925390  0.15464665  0.82498415     0.00300
C31         C  0.88292236  0.13528802  0.78439509    -0.22600
C32         C  0.92395439  0.11863811  0.77207747    -0.22800
C33         C  0.95337451  0.12907510  0.80563031     0.00200
H34         H  0.85668283  0.14307310  0.76066294     0.14000
H35         H  0.93297255  0.10953937  0.73846481     0.14000
N36         N  0.92939654  0.87460266  0.83187107    -0.02300
C37         C  0.90384371  0.88715378  0.79661078     0.00300
C38         C  0.90902855  0.86075429  0.76107052    -0.22600
C39         C  0.93647191  0.82919840  0.77483943    -0.22800
C40         C  0.94820265  0.83735710  0.81854802     0.00200
H41         H  0.89139171  0.86239559  0.72972068     0.14000
H42         H  0.94720631  0.80324957  0.75428812     0.14000
N43         N  0.06881341  0.01613511  0.82584015    -0.02300
C44         C  0.09497677  0.04859592  0.81427413     0.00300
C45         C  0.11112513  0.04440582  0.77111909    -0.22600
C46         C  0.09469753  0.00735466  0.75593061    -0.22800
C47         C  0.06884334  0.99027087  0.79041698     0.00200
H48         H  0.13356873  0.06535449  0.75319937     0.14000
H49         H  0.10398194  0.99314846  0.72447071     0.14000
N50         N  0.95197902  0.84883757  0.12333979    -0.02300
C51         C  0.93322445  0.81338855  0.10639763     0.00300
C52         C  0.96619609  0.78302905  0.09954754    -0.22600
C53         C  0.00476652  0.79735093  0.11908496    -0.22800
C54         C  0.99302996  0.83508835  0.13852298     0.00200
H55         H  0.96090337  0.75131290  0.08920368     0.14000
H56         H  0.03370551  0.77788060  0.12778950     0.14000
N57         N  0.79537594  0.01182678  0.14668546    -0.02300
C58         C  0.77670052  0.05003756  0.13898641     0.00300
C59         C  0.72973377  0.04849655  0.13499594    -0.22600
C60         C  0.71750667  0.00890690  0.14412375    -0.22800
C61         C  0.75746586  0.98778622  0.15426994     0.00200
H62         H  0.70628123  0.07462864  0.13337831     0.14000
H63         H  0.68267287  0.99846123  0.14917573     0.14000
N64         N  0.95388060  0.13235411  0.15506255    -0.02300
C65         C  0.94123560  0.17297309  0.14958775     0.00300
C66         C  0.97938308  0.19741679  0.14497090    -0.22600
C67         C  0.01569900  0.17268108  0.15615797    -0.22800
C68         C  0.99733376  0.13604036  0.17170900     0.00200
H69         H  0.98002349  0.23064632  0.13997772     0.14000
H70         H  0.05077166  0.18231023  0.15708950     0.14000
Zr71       Zr  0.23946829  0.30194932  0.30925785     2.17500
O72         O  0.31457834  0.28416446  0.33902840    -0.50100
O73         O  0.22958277  0.36980282  0.34340175    -0.73300
O74         O  0.29558040  0.34868032  0.28769739    -0.80100
O75         O  0.16564163  0.27271955  0.39877804    -0.81900
O76         O  0.29335862  0.35158433  0.21233639    -0.77500
O77         O  0.24006603  0.27414409  0.38189716    -0.89100
O78         O  0.16718458  0.39748164  0.30960568    -0.75100
O79         O  0.20951437  0.34080442  0.24910400    -0.84600
O80         O  0.15905069  0.30783624  0.32381703    -0.84300
O81         O  0.26346525  0.26618450  0.24320252    -0.71000
O82         O  0.21383658  0.23210262  0.31626002    -0.83200
Zr83       Zr  0.12216129  0.24001987  0.20478858     2.26400
Zr84       Zr  0.23015186  0.30424163  0.18283606     2.06300
Zr85       Zr  0.13255050  0.23720031  0.33034676     2.10000
Zr86       Zr  0.12976402  0.34622758  0.26364899     1.78800
O87         O  0.14253623  0.18071473  0.38321591    -0.92000
O88         O  0.13442272  0.40650366  0.21483425    -0.39800
O89         O  0.10030038  0.27693871  0.27046775    -0.76400
O90         O  0.14873125  0.30991025  0.19663171    -0.95100
O91         O  0.20265870  0.23495165  0.18958391    -0.88400
O92         O  0.15519167  0.20114333  0.26380312    -0.91200
C93         C  0.20136644  0.39966377  0.33586532     1.02500
C94         C  0.20722250  0.28483781  0.40710347     1.15400
C95         C  0.30994319  0.36259729  0.25086812     1.06200
O96         O  0.21072028  0.36127406  0.13312993    -0.93400
O97         O  0.20231376  0.25807402  0.11950966    -0.89100
O98         O  0.12587286  0.25533402  0.12788714    -0.82300
C99         C  0.16204054  0.24557562  0.10662516     1.12900
O100        O  0.30429283  0.18075174  0.28923926    -0.95400
Zr101      Zr  0.23470268  0.19703284  0.24895920     1.88900
O102        O  0.13339990  0.17115747  0.17238597    -0.72000
O103        O  0.29984436  0.29639771  0.13807315    -0.51300
O104        O  0.29740958  0.17923490  0.19798875    -0.96000
O105        O  0.22775782  0.13291899  0.29158322    -0.53200
O106        O  0.20257040  0.14862413  0.19708770    -0.72500
C107        C  0.16618564  0.14440667  0.17432458     0.99800
O108        O  0.04814641  0.26521893  0.17902628    -0.61400
O109        O  0.06075116  0.25495935  0.36817476    -0.56200
O110        O  0.05879587  0.19980141  0.22910777    -0.92800
O111        O  0.07687375  0.18309091  0.29958408    -0.91300
O112        O  0.07128224  0.36626813  0.31823829    -0.91600
O113        O  0.05587676  0.36395507  0.23168403    -0.90400
C114        C  0.05570055  0.17588100  0.26217391     1.18700
H115        H  0.15182577  0.32473002  0.34946125     0.34600
H116        H  0.13406661  0.32350323  0.17190487     0.45400
H117        H  0.14568593  0.17259235  0.26356272     0.39000
H118        H  0.29646404  0.26573222  0.24033522     0.35500
H119        H  0.12813236  0.43059046  0.23445335     0.27200
H120        H  0.31328086  0.26966664  0.14794658     0.33200
H121        H  0.28736581  0.18983055  0.16877811     0.39100
H122        H  0.05917043  0.33964437  0.32970981     0.33500
H123        H  0.03729900  0.25329411  0.34481955     0.32400
H124        H  0.17544796  0.18141936  0.39067548     0.34100
H125        H  0.20440775  0.11628467  0.27630368     0.33100
H126        H  0.06033440  0.36082499  0.19918671     0.37100
H127        H  0.03139753  0.27447573  0.20617357     0.29800
H128        H  0.32583978  0.30950836  0.35370937     0.34000
H129        H  0.30569860  0.20216497  0.31271525     0.36900
H130        H  0.05446572  0.23092559  0.38779576     0.29500
H131        H  0.05458423  0.29126336  0.16272649     0.42400
H132        H  0.19242647  0.34832131  0.10951725     0.32400
H133        H  0.16735960  0.40869396  0.20689531     0.40000
H134        H  0.21265027  0.14143037  0.31984952     0.31900
H135        H  0.28909337  0.29093832  0.10762336     0.32000
H136        H  0.33518156  0.28012069  0.31291568     0.32200
N137        N  0.11147857  0.01521504  0.11421602    -0.02300
C138        C  0.13407360  0.05068192  0.10318085     0.00300
C139        C  0.17494192  0.04202909  0.08085114    -0.22600
C140        C  0.18183596  0.00049274  0.08448017    -0.22800
C141        C  0.14538445  0.98586518  0.10973584     0.00200
H142        H  0.20101928  0.06386085  0.07072015     0.14000
H143        H  0.21392492  0.98476850  0.07698252     0.14000
Zr144      Zr  0.24714418  0.72288742  0.28519080     2.17500
O145        O  0.28245373  0.66192639  0.25047830    -0.50100
O146        O  0.27310558  0.71304934  0.36131995    -0.73300
O147        O  0.32639351  0.73612649  0.27106799    -0.80100
O148        O  0.14645712  0.66818870  0.32832118    -0.81900
O149        O  0.33117919  0.80371535  0.28625209    -0.77500
O150        O  0.22221901  0.65804438  0.31240435    -0.89100
O151        O  0.24664074  0.76820247  0.40160963    -0.75100
O152        O  0.25947026  0.79216284  0.30900780    -0.84600
O153        O  0.18461732  0.74250648  0.33278911    -0.84300
O154        O  0.25489258  0.76179806  0.21731953    -0.71000
O155        O  0.18037482  0.71317937  0.24108832    -0.83200
Zr156      Zr  0.13655357  0.84262504  0.24580256     2.26400
Zr157      Zr  0.26664173  0.83183386  0.24240598     2.06300
Zr158      Zr  0.11782504  0.73276640  0.28962829     2.10000
Zr159      Zr  0.19740737  0.81149054  0.35563889     1.78800
O160        O  0.07676478  0.67312663  0.26149125    -0.92000
O161        O  0.25079681  0.85985040  0.38867303    -0.39800
O162        O  0.12914209  0.80353283  0.31328007    -0.76400
O163        O  0.20334635  0.85309723  0.28968707    -0.95100
O164        O  0.19950057  0.82341723  0.19915803    -0.88400
O165        O  0.12431546  0.77296929  0.22181021    -0.91200
C166        C  0.26835465  0.73347716  0.39781376     1.02500
C167        C  0.18502730  0.64781488  0.33186522     1.15400
C168        C  0.34507432  0.76586755  0.29121578     1.06200
O169        O  0.30411471  0.89528462  0.26549676    -0.93400
O170        O  0.23854239  0.88887034  0.19456055    -0.89100
O171        O  0.16799617  0.90668766  0.22089143    -0.82300
C172        C  0.20157538  0.91123257  0.19383808     1.12700
O173        O  0.21545154  0.68818893  0.14853650    -0.95400
Zr174      Zr  0.18632133  0.75501349  0.17478921     1.88900
O175        O  0.11118046  0.85372489  0.17049808    -0.72000
O176        O  0.32725329  0.82591933  0.18621269    -0.51300
O177        O  0.24087022  0.76993164  0.11497290    -0.96000
O178        O  0.13121322  0.71258508  0.13554872    -0.53200
O179        O  0.14288929  0.80312058  0.12701648    -0.72500
C180        C  0.11910857  0.83674088  0.13271371     0.99800
O181        O  0.10012859  0.90593624  0.27401155    -0.61400
O182        O  0.06520962  0.73395687  0.35323224    -0.56200
O183        O  0.05715825  0.83165850  0.26399586    -0.92800
O184        O  0.04623162  0.76280537  0.25926862    -0.91300
O185        O  0.14842717  0.79056404  0.41781716    -0.91600
O186        O  0.15839791  0.87119135  0.38891716    -0.90400
C187        C  0.03478076  0.80068605  0.25015222     1.18700
H188        H  0.18327777  0.72616088  0.35964113     0.34600
H189        H  0.20606400  0.88201985  0.29751370     0.45400
H190        H  0.09857356  0.77105928  0.20232412     0.39000
H191        H  0.28098265  0.75209843  0.19999227     0.35500
H192        H  0.28146249  0.84750123  0.38272536     0.27200
H193        H  0.31419530  0.83895957  0.15937498     0.33200
H194        H  0.24185209  0.80062007  0.11354935     0.39100
H195        H  0.16786072  0.79314677  0.44433511     0.33500
H196        H  0.08328382  0.72238912  0.37798771     0.32400
H197        H  0.07202512  0.67950941  0.22969204     0.34100
H198        H  0.13861279  0.71687477  0.10365658     0.33100
H199        H  0.13270477  0.87729166  0.36876989     0.37100
H200        H  0.07441938  0.91167275  0.25372623     0.29800
H201        H  0.30713976  0.65327469  0.27080902     0.34000
H202        H  0.24911770  0.68984638  0.15146138     0.36900
H203        H  0.06128430  0.76373009  0.36062142     0.29500
H204        H  0.08538592  0.89816948  0.30263441     0.42400
H205        H  0.29861283  0.89656592  0.29800317     0.32400
H206        H  0.24978555  0.88478830  0.36944219     0.40000
H207        H  0.10114323  0.72650063  0.14001579     0.31900
H208        H  0.35102717  0.84551969  0.19596715     0.32000
H209        H  0.29866889  0.67245480  0.22366728     0.32200
Zr210      Zr  0.73795404  0.23882253  0.18570836     2.17500
O211        O  0.77139033  0.26160899  0.11505444    -0.50100
O212        O  0.76274370  0.16704140  0.18248976    -0.73300
O213        O  0.81789557  0.23244331  0.18506223    -0.80100
O214        O  0.63157458  0.19327771  0.14849227    -0.81900
O215        O  0.84149307  0.25969062  0.25047581    -0.77500
O216        O  0.69754230  0.21924949  0.12146030    -0.89100
O217        O  0.75357934  0.14147908  0.25237019    -0.75100
O218        O  0.76177592  0.22739025  0.25980007    -0.84600
O219        O  0.67870012  0.19954728  0.22033880    -0.84300
O220        O  0.75402943  0.30585666  0.21550353    -0.71000
O221        O  0.67083282  0.28061845  0.17658379    -0.83200
Zr222      Zr  0.64440906  0.29616638  0.31630414     2.26400
Zr223      Zr  0.77383873  0.29392626  0.29173637     2.06300
Zr224      Zr  0.61057969  0.24120903  0.21191236     2.10000
Zr225      Zr  0.70286172  0.18851426  0.29401402     1.78800
O226        O  0.56103715  0.25686577  0.14965373    -0.92000
O227        O  0.75982543  0.16905083  0.34874925    -0.39800
O228        O  0.63276762  0.22817056  0.28721852    -0.76400
O229        O  0.71291956  0.25519286  0.32704191    -0.95100
O230        O  0.70568563  0.33509861  0.28388668    -0.88400
O231        O  0.62478727  0.30924299  0.24104359    -0.91200
C232        C  0.76796919  0.13864052  0.21191542     1.02500
C233        C  0.66701895  0.19153467  0.12187899     1.15400
C234        C  0.84871639  0.23950291  0.21320445     1.06200
O235        O  0.81790414  0.27033641  0.35516413    -0.93400
O236        O  0.74676235  0.34607438  0.34993091    -0.89100
O237        O  0.68287680  0.31879528  0.38016296    -0.82300
C238        C  0.71249268  0.34715886  0.37824437     1.12900
O239        O  0.72188470  0.36150659  0.13714112    -0.95400
Zr240      Zr  0.68593842  0.34710493  0.20904010     1.88900
O241        O  0.61974749  0.36867304  0.31775935    -0.72000
O242        O  0.82923527  0.34947181  0.28230537    -0.51300
O243        O  0.73926803  0.40420719  0.21693336    -0.96000
O244        O  0.63295673  0.37943823  0.15732965    -0.53200
O245        O  0.64304386  0.39835693  0.25274204    -0.72500
C246        C  0.62300683  0.39969296  0.29103424     0.99800
O247        O  0.60514906  0.27420815  0.38443486    -0.61400
O248        O  0.56171475  0.18393143  0.23490259    -0.56200
O249        O  0.56299338  0.29071404  0.31999365    -0.92800
O250        O  0.54391271  0.27936493  0.24845052    -0.91300
O251        O  0.66466602  0.12222867  0.28484612    -0.91600
O252        O  0.66575622  0.16728053  0.36334788    -0.90400
C253        C  0.53591341  0.29530849  0.28763498     1.18700
H254        H  0.67600211  0.17214609  0.20779159     0.34600
H255        H  0.71909315  0.25142952  0.35825539     0.45400
H256        H  0.59919162  0.32814694  0.23851895     0.39000
H257        H  0.77920518  0.31846738  0.19946876     0.35500
H258        H  0.76229364  0.13844620  0.34652884     0.27200
H259        H  0.85438254  0.34202149  0.30261629     0.33200
H260        H  0.72181286  0.42911152  0.20749370     0.39100
H261        H  0.68191153  0.10260747  0.30382566     0.33500
H262        H  0.53009549  0.19396862  0.22971004     0.32400
H263        H  0.53276087  0.24101420  0.15592925     0.34100
H264        H  0.63838611  0.40961288  0.16019083     0.33100
H265        H  0.63304897  0.17477774  0.35975779     0.37100
H266        H  0.62797590  0.25757010  0.40092985     0.29800
H267        H  0.78963297  0.23768198  0.10373593     0.34000
H268        H  0.71360885  0.33769220  0.11821510     0.36900
H269        H  0.56710015  0.16231433  0.21200879     0.29500
H270        H  0.60024520  0.29963869  0.40240085     0.42400
H271        H  0.80326431  0.28412199  0.38117749     0.32400
H272        H  0.78919396  0.17927244  0.33620403     0.40000
H273        H  0.60218906  0.37522820  0.17079077     0.31900
H274        H  0.84251268  0.34534324  0.25214485     0.32000
H275        H  0.79426485  0.28288833  0.12259220     0.32200
Zr276      Zr  0.62968740  0.71278510  0.27326845     2.17500
O277        O  0.55503725  0.68619431  0.25249669    -0.50100
O278        O  0.63386785  0.68091844  0.34628814    -0.73300
O279        O  0.63725710  0.64232914  0.25117310    -0.80100
O280        O  0.57671858  0.80494408  0.33146159    -0.81900
O281        O  0.71362555  0.63548200  0.25016986    -0.77500
O282        O  0.56788637  0.73590017  0.31856913    -0.89100
O283        O  0.69906408  0.70524844  0.37705589    -0.75100
O284        O  0.70950845  0.69798273  0.27985728    -0.84600
O285        O  0.66011844  0.76584830  0.31875190    -0.84300
O286        O  0.65830277  0.70978728  0.19814639    -0.71000
O287        O  0.60979680  0.77651252  0.23740647    -0.83200
Zr288      Zr  0.74902701  0.81443823  0.21426672     2.26400
Zr289      Zr  0.73941982  0.69720713  0.20538830     2.06300
Zr290      Zr  0.64154568  0.82995974  0.28323513     2.10000
Zr291      Zr  0.73917913  0.75087937  0.32476493     1.78800
O292        O  0.57376722  0.87187425  0.26816974    -0.92000
O293        O  0.79710011  0.69797168  0.33983373    -0.39800
O294        O  0.72217043  0.81605945  0.28958733    -0.76400
O295        O  0.77071908  0.75116356  0.25055173    -0.95100
O296        O  0.72064820  0.76075647  0.16875170    -0.88400
O297        O  0.66922881  0.82842557  0.20792117    -0.91200
C298        C  0.66157156  0.68456757  0.37873271     1.02500
C299        C  0.55703473  0.76947752  0.33852210     1.15400
C300        C  0.67312345  0.62258660  0.26173257     1.06200
O301        O  0.80273526  0.64748679  0.20491677    -0.93400
O302        O  0.80995389  0.72378683  0.16538847    -0.89100
O303        O  0.80723521  0.79420910  0.16421602    -0.82300
C304        C  0.82565633  0.75985420  0.15329397     1.12900
O305        O  0.56953375  0.73927027  0.14728308    -0.95400
Zr306      Zr  0.64088983  0.77457345  0.16315591     1.88900
O307        O  0.73864051  0.85189162  0.14523062    -0.72000
O308        O  0.71855915  0.66088716  0.13783797    -0.51300
O309        O  0.65309233  0.73773765  0.09326880    -0.96000
O310        O  0.57956114  0.82149230  0.14048251    -0.53200
O311        O  0.67543589  0.82494006  0.11323900    -0.72500
C312        C  0.71031712  0.84888125  0.11325854     0.99800
O313        O  0.82650686  0.83828772  0.22902368    -0.61400
O314        O  0.65687008  0.86939139  0.35025648    -0.56200
O315        O  0.74858950  0.88313585  0.24237023    -0.92800
O316        O  0.67349375  0.89645172  0.25350920    -0.91300
O317        O  0.73416084  0.78843157  0.39494449    -0.91600
O318        O  0.81043616  0.78394220  0.34533701    -0.90400
C319        C  0.71404804  0.90702615  0.23973753     1.18700
H320        H  0.64711618  0.76536010  0.34835393     0.34600
H321        H  0.80367815  0.74872396  0.25149982     0.45400
H322        H  0.66267881  0.85399796  0.19248455     0.39000
H323        H  0.64409337  0.68756473  0.18199402     0.35500
H324        H  0.77955569  0.67251392  0.34658187     0.27200
H325        H  0.74623543  0.66248175  0.11848046     0.33200
H326        H  0.68676212  0.73444749  0.09021667     0.39100
H327        H  0.70225823  0.78478069  0.40581271     0.33500
H328        H  0.65433687  0.84883344  0.37462436     0.32400
H329        H  0.55930551  0.85783656  0.24277876     0.34100
H330        H  0.58259373  0.82321132  0.10770913     0.33100
H331        H  0.80908345  0.81167782  0.33120403     0.37100
H332        H  0.83050362  0.86380456  0.21103229     0.29800
H333        H  0.55107290  0.66025434  0.26976415     0.34000
H334        H  0.54930508  0.74524970  0.17325555     0.36900
H335        H  0.68997872  0.87578161  0.34833783     0.29500
H336        H  0.82596524  0.84792756  0.26024040     0.42400
H337        H  0.81019024  0.64364565  0.23665135     0.32400
H338        H  0.81190836  0.69229727  0.31062880     0.40000
H339        H  0.58875864  0.84919871  0.15115736     0.31900
H340        H  0.71687119  0.63135197  0.14676152     0.32000
H341        H  0.55891868  0.67700792  0.22127592     0.32200
N342        N  0.08473941  0.15481215  0.99698545    -0.02300
C343        C  0.11147569  0.15498876  0.03435809     0.00300
C344        C  0.15163221  0.13288589  0.02632607    -0.22600
C345        C  0.15652976  0.13138616  0.98133565    -0.22800
C346        C  0.11918958  0.15324995  0.96534286     0.00200
H347        H  0.18021114  0.13042011  0.04866046     0.14000
H348        H  0.18913303  0.12673164  0.96434033     0.14000
Zr349      Zr  0.13641693  0.23368348  0.80364923     2.17500
O350        O  0.06857316  0.25602939  0.84600113    -0.50100
O351        O  0.14116696  0.16519863  0.83560611    -0.73300
O352        O  0.07091558  0.19716058  0.78267685    -0.80100
O353        O  0.22350827  0.24860681  0.88569177    -0.81900
O354        O  0.07000973  0.19341076  0.70734995    -0.77500
O355        O  0.14825667  0.25656773  0.87735174    -0.89100
O356        O  0.19666442  0.13014483  0.79672742    -0.75100
O357        O  0.15473413  0.19351107  0.73964051    -0.84600
O358        O  0.21580538  0.21612511  0.80875563    -0.84300
O359        O  0.11371476  0.27492111  0.74149969    -0.71000
O360        O  0.17310362  0.29930022  0.80959577    -0.83200
Zr361      Zr  0.25404588  0.28230357  0.68781017     2.26400
Zr362      Zr  0.13533394  0.23509250  0.67680006     2.06300
Zr363      Zr  0.25315739  0.28194803  0.81526435     2.10000
Zr364      Zr  0.23366681  0.17661763  0.74470589     1.78800
O365        O  0.24847064  0.34122561  0.86520460    -0.92000
O366        O  0.21066448  0.12016491  0.69631002    -0.39800
O367        O  0.27327903  0.24078259  0.75078412    -0.76400
O368        O  0.21556007  0.21723115  0.68088983    -0.95100
O369        O  0.17469747  0.29923787  0.68252549    -0.88400
O370        O  0.23353617  0.32342694  0.75160485    -0.91200
C371        C  0.16439108  0.13244890  0.82596431     1.02500
C372        C  0.18164487  0.24116497  0.89813216     1.15400
C373        C  0.05401825  0.18436992  0.74665049     1.06200
O374        O  0.14099204  0.18022828  0.62134957    -0.93400
O375        O  0.16037652  0.28041910  0.61323737    -0.89100
O376        O  0.23553877  0.26818998  0.61274561    -0.82300
C377        C  0.20116153  0.28723544  0.59746444     1.12900
O378        O  0.08942490  0.36212974  0.79121351    -0.95400
Zr379      Zr  0.15417698  0.33914328  0.74516740     1.88900
O380        O  0.25753862  0.35548262  0.66929986    -0.72000
O381        O  0.06396051  0.25590039  0.64196696    -0.51300
O382        O  0.09128329  0.36547484  0.70060783    -0.96000
O383        O  0.17656496  0.40191704  0.78406862    -0.53200
O384        O  0.18909750  0.38418441  0.69037488    -0.72500
C385        C  0.22895061  0.38589414  0.67215433     0.99800
O386        O  0.32159765  0.26437172  0.64238700    -0.61400
O387        O  0.32343080  0.26003761  0.85150022    -0.56200
O388        O  0.32719669  0.28320583  0.72035382    -0.92800
O389        O  0.31913421  0.32108025  0.78159877    -0.91300
O390        O  0.29367687  0.14326252  0.78776584    -0.91600
O391        O  0.30060077  0.15541379  0.70072249    -0.90400
C392        C  0.33822619  0.31431780  0.74323216     1.18700
H393        H  0.22269641  0.19777806  0.83316309     0.34600
H394        H  0.22564542  0.20239598  0.65454430     0.45400
H395        H  0.24960411  0.34943509  0.75233719     0.39000
H396        H  0.08102796  0.27992431  0.74229659     0.35500
H397        H  0.21111162  0.09512221  0.71538537     0.27200
H398        H  0.06715349  0.28607492  0.63662240     0.33200
H399        H  0.09991160  0.35810835  0.66964242     0.39100
H400        H  0.29163764  0.11340133  0.78036085     0.33500
H401        H  0.31336350  0.24632178  0.87939452     0.32400
H402        H  0.25553611  0.36540029  0.84602503     0.34100
H403        H  0.16674783  0.39773396  0.81537734     0.33100
H404        H  0.32173948  0.17921437  0.70235933     0.37100
H405        H  0.31608001  0.23590492  0.63142734     0.29800
H406        H  0.05342212  0.23043238  0.85668689     0.34000
H407        H  0.09229832  0.34614684  0.81916635     0.36900
H408        H  0.33549276  0.23711756  0.83269800     0.29500
H409        H  0.32179774  0.28192675  0.61549877     0.42400
H410        H  0.11662120  0.16045582  0.62994005     0.32400
H411        H  0.17776576  0.12536806  0.69068941     0.40000
H412        H  0.15591103  0.42393611  0.77274835     0.31900
H413        H  0.06565342  0.24330902  0.61199059     0.32000
H414        H  0.04748250  0.26793993  0.82379802     0.32200
Zr415      Zr  0.13863143  0.80581527  0.80923443     2.17500
O416        O  0.12702179  0.80897812  0.88954477    -0.50100
O417        O  0.08539835  0.86048769  0.78920951    -0.73300
O418        O  0.16270586  0.87322031  0.83030131    -0.80100
O419        O  0.04725947  0.73641637  0.77983099    -0.81900
O420        O  0.23943162  0.86581212  0.83219676    -0.77500
O421        O  0.06954846  0.77707926  0.83689771    -0.89100
O422        O  0.10306549  0.87445446  0.71699468    -0.75100
O423        O  0.18331993  0.84166671  0.75530111    -0.84600
O424        O  0.10762082  0.78535004  0.74002908    -0.84300
O425        O  0.21628223  0.78576541  0.82419222    -0.71000
O426        O  0.14640182  0.73177689  0.80839139    -0.83200
Zr427      Zr  0.23850091  0.72590595  0.69598486     2.26400
Zr428      Zr  0.26067714  0.82052390  0.76759667     2.06300
Zr429      Zr  0.11670497  0.71139836  0.73780864     2.10000
Zr430      Zr  0.15294867  0.82054572  0.68640098     1.78800
O431        O  0.10150636  0.64449515  0.77246033    -0.92000
O432        O  0.18336317  0.88545808  0.65724614    -0.39800
O433        O  0.16112092  0.74659181  0.68174099    -0.76400
O434        O  0.23153056  0.80026690  0.69657788    -0.95100
O435        O  0.26921183  0.74678699  0.76503233    -0.88400
O436        O  0.19398086  0.69038359  0.75095157    -0.91200
C437        C  0.08243037  0.88263180  0.75392502     1.02500
C438        C  0.03886814  0.75949022  0.81438240     1.15400
C439        C  0.20117158  0.88143788  0.84706488     1.06200
O440        O  0.28216616  0.88038619  0.72270368    -0.93400
O441        O  0.33045025  0.78419726  0.73839438    -0.89100
O442        O  0.31170435  0.75143748  0.67502618    -0.82300
C443        C  0.34082572  0.76237929  0.70347369     1.12900
O444        O  0.21591880  0.71650674  0.89979133    -0.95400
Zr445      Zr  0.22505745  0.71192384  0.81937371     1.88900
O446        O  0.28875018  0.66878720  0.71534607    -0.72000
O447        O  0.32787832  0.84233286  0.80845619    -0.51300
O448        O  0.29914321  0.71932855  0.85452126    -0.96000
O449        O  0.19305506  0.64973506  0.85338277    -0.53200
O450        O  0.27506444  0.65766640  0.78895327    -0.72500
C451        C  0.29360809  0.64798166  0.75132908     0.99800
O452        O  0.24730478  0.72365821  0.61526483    -0.61400
O453        O  0.05035537  0.69430788  0.69346796    -0.56200
O454        O  0.21197690  0.66113256  0.67021001    -0.92800
O455        O  0.13597591  0.67288597  0.66785322    -0.91300
O456        O  0.08177556  0.81079482  0.64660025    -0.91600
O457        O  0.16647206  0.82141499  0.60637116    -0.90400
C458        C  0.17348457  0.65644717  0.65211435     1.18700
H459        H  0.07609403  0.79401405  0.73682332     0.34600
H460        H  0.25019475  0.81209985  0.67303321     0.45400
H461        H  0.19643582  0.66055817  0.74893062     0.39000
H462        H  0.22486213  0.79419644  0.85373317     0.35500
H463        H  0.15662020  0.89994478  0.64431232     0.27200
H464        H  0.32575227  0.87297848  0.81023064     0.33200
H465        H  0.30171840  0.74941678  0.86055379     0.39100
H466        H  0.06744018  0.83872594  0.64522087     0.33500
H467        H  0.02728071  0.68366009  0.71494699     0.32400
H468        H  0.11749082  0.62406383  0.75300998     0.34100
H469        H  0.19286338  0.62899343  0.82915217     0.33100
H470        H  0.19768323  0.80966127  0.60224169     0.37100
H471        H  0.25522809  0.75230726  0.60626978     0.29800
H472        H  0.10726608  0.83368495  0.89476221     0.34000
H473        H  0.18706199  0.73240222  0.90446150     0.36900
H474        H  0.03799484  0.72152026  0.68376647     0.29500
H475        H  0.27561087  0.70721671  0.60954945     0.42400
H476        H  0.31608196  0.88072570  0.72338297     0.32400
H477        H  0.19066511  0.90192362  0.68393954     0.40000
H478        H  0.16029250  0.65661693  0.85872362     0.31900
H479        H  0.32255262  0.83256530  0.83930895     0.32000
H480        H  0.15715677  0.81637028  0.90173880     0.32200
Zr481      Zr  0.74185957  0.25111562  0.82986513     2.17500
O482        O  0.78719735  0.26835567  0.89472927    -0.50100
O483        O  0.76841246  0.17926400  0.82855568    -0.73300
O484        O  0.71256637  0.22182106  0.89702638    -0.80100
O485        O  0.82979187  0.26502065  0.74282819    -0.81900
O486        O  0.63961485  0.20527008  0.88079258    -0.77500
O487        O  0.81927328  0.27131568  0.81633242    -0.89100
O488        O  0.73040991  0.14820442  0.77230170    -0.75100
O489        O  0.67469335  0.21502538  0.81072437    -0.84600
O490        O  0.74855662  0.23334267  0.75269236    -0.84300
O491        O  0.67926580  0.29684067  0.84936254    -0.71000
O492        O  0.75243501  0.31580287  0.79158494    -0.83200
Zr493      Zr  0.62987053  0.30565682  0.71307431     2.26400
Zr494      Zr  0.61159629  0.25959414  0.82821732     2.06300
Zr495      Zr  0.75894022  0.29811774  0.71384269     2.10000
Zr496      Zr  0.68103995  0.19713327  0.73501090     1.78800
O497        O  0.81353361  0.35483138  0.71305521    -0.92000
O498        O  0.62667141  0.14547184  0.76191558    -0.39800
O499        O  0.69186984  0.26014836  0.69373680    -0.76400
O500        O  0.61685908  0.24134269  0.75073671    -0.95100
O501        O  0.62316373  0.32317193  0.78952750    -0.88400
O502        O  0.69647708  0.34364322  0.73177688    -0.91200
C503        C  0.75873942  0.14790078  0.80437112     1.02500
C504        C  0.84148480  0.25692725  0.78317816     1.15400
C505        C  0.67764032  0.19879810  0.90153290     1.06200
O506        O  0.54758094  0.21240341  0.81998593    -0.93400
O507        O  0.55046922  0.30969688  0.80548969    -0.89100
O508        O  0.55102821  0.30169040  0.73214531    -0.82300
C509        C  0.53516574  0.31918138  0.76658636     1.12900
O510        O  0.73160554  0.37945114  0.87390616    -0.95400
Zr511      Zr  0.68869717  0.36060406  0.80828767     1.88900
O512        O  0.60346783  0.37627224  0.71337202    -0.72000
O513        O  0.57837940  0.27761619  0.90043555    -0.51300
O514        O  0.64272643  0.39711863  0.86419044    -0.96000
O515        O  0.74175564  0.41571693  0.78773991    -0.53200
O516        O  0.63734188  0.40920809  0.77084746    -0.72500
C517        C  0.61117426  0.40843071  0.73686731     0.99800
O518        O  0.58823561  0.27955405  0.64941482    -0.61400
O519        O  0.79648200  0.26803749  0.64845139    -0.56200
O520        O  0.65346744  0.33710453  0.64535499    -0.92800
O521        O  0.73147027  0.33660997  0.64634299    -0.91300
O522        O  0.72448943  0.15576459  0.68116527    -0.91600
O523        O  0.63884975  0.17830078  0.66888292    -0.90400
C524        C  0.69236438  0.34696195  0.62900484     1.18700
H525        H  0.77349719  0.21416396  0.74676567     0.34600
H526        H  0.58897409  0.22856538  0.74095758     0.45400
H527        H  0.69858750  0.36921235  0.71516767     0.39000
H528        H  0.67877537  0.30219947  0.88089047     0.35500
H529        H  0.64373503  0.11880049  0.76061288     0.27200
H530        H  0.59403537  0.30346315  0.90899256     0.33200
H531        H  0.63202785  0.37509911  0.88473049     0.39100
H532        H  0.73881117  0.17641903  0.66105380     0.33500
H533        H  0.82786562  0.27945939  0.64835440     0.32400
H534        H  0.83971836  0.34450935  0.69478732     0.34100
H535        H  0.72204664  0.43981697  0.78023721     0.33100
H536        H  0.60699771  0.17370883  0.67942954     0.37100
H537        H  0.61212967  0.26840339  0.62887995     0.29800
H538        H  0.79580598  0.24155004  0.90857100     0.34000
H539        H  0.74936865  0.35414536  0.88140128     0.36900
H540        H  0.80064115  0.23833559  0.65600769     0.29500
H541        H  0.57237217  0.25450803  0.66060951     0.42400
H542        H  0.52077889  0.22777547  0.83233461     0.32400
H543        H  0.62260800  0.15110971  0.79408096     0.40000
H544        H  0.75555136  0.40698387  0.75897156     0.31900
H545        H  0.54657503  0.28650827  0.89408956     0.32000
H546        H  0.76564187  0.28166896  0.91620206     0.32200
Zr547      Zr  0.70905310  0.80200671  0.82934232     2.17500
O548        O  0.68367037  0.80135155  0.90689952    -0.50100
O549        O  0.76594224  0.85527971  0.83351319    -0.73300
O550        O  0.77421426  0.78526133  0.87156703    -0.80100
O551        O  0.64515149  0.88720178  0.77975070    -0.81900
O552        O  0.80222926  0.72270709  0.84838845    -0.77500
O553        O  0.67133095  0.86613563  0.84670073    -0.89100
O554        O  0.80209949  0.85636109  0.76613943    -0.75100
O555        O  0.76895404  0.77104053  0.78642958    -0.84600
O556        O  0.70759184  0.83485194  0.75845039    -0.84300
O557        O  0.69568002  0.72858620  0.83062275    -0.71000
O558        O  0.63279016  0.79018287  0.80451482    -0.83200
Zr559      Zr  0.67738854  0.72236329  0.68808599     2.26400
Zr560      Zr  0.75513322  0.69821440  0.78426884     2.06300
Zr561      Zr  0.63116295  0.82401783  0.73319500     2.10000
Zr562      Zr  0.76805851  0.80478623  0.71677324     1.78800
O563        O  0.55466891  0.83999751  0.76200498    -0.92000
O564        O  0.84892179  0.78535568  0.71927021    -0.39800
O565        O  0.69227341  0.79506928  0.68787671    -0.76400
O566        O  0.75421120  0.73153082  0.71285716    -0.95100
O567        O  0.68005818  0.68744195  0.75749112    -0.88400
O568        O  0.61702690  0.75121062  0.73253195    -0.91200
C569        C  0.79639173  0.86904214  0.80651840     1.02500
C570        C  0.66217489  0.89448879  0.81863764     1.15400
C571        C  0.80329290  0.75567073  0.87329399     1.06200
O572        O  0.83009600  0.67838614  0.75418864    -0.93400
O573        O  0.72977236  0.63560335  0.74044969    -0.89100
O574        O  0.70995156  0.65676084  0.67159460    -0.82300
C575        C  0.71554485  0.62839217  0.70031959     1.12900
O576        O  0.59905853  0.72376380  0.87980098    -0.95400
Zr577      Zr  0.62069912  0.71623012  0.80169796     1.88900
O578        O  0.61762520  0.67189056  0.68244664    -0.72000
O579        O  0.76345150  0.64133464  0.83701192    -0.51300
O580        O  0.62822118  0.64945439  0.83916807    -0.96000
O581        O  0.53898625  0.72965931  0.81240486    -0.53200
O582        O  0.58349620  0.66772950  0.75069263    -0.72500
C583        C  0.58757424  0.65735149  0.70937205     0.99800
O584        O  0.70798243  0.72334311  0.61233662    -0.61400
O585        O  0.62564292  0.88173982  0.68110160    -0.56200
O586        O  0.61864026  0.74220868  0.63926519    -0.92800
O587        O  0.58834875  0.80318145  0.66455271    -0.91300
O588        O  0.77348457  0.86937086  0.67500836    -0.91600
O589        O  0.79191171  0.79600424  0.63931116    -0.90400
C590        C  0.58970966  0.77187122  0.63721043     1.18700
H591        H  0.71587597  0.86372356  0.75906405     0.34600
H592        H  0.77577066  0.71812726  0.69271352     0.45400
H593        H  0.58717070  0.74574881  0.72058728     0.39000
H594        H  0.69781116  0.71790152  0.86058525     0.35500
H595        H  0.85459671  0.77950979  0.75103310     0.27200
H596        H  0.73164843  0.63250070  0.84354695     0.33200
H597        H  0.60572789  0.63111787  0.82492323     0.39100
H598        H  0.80675720  0.87497553  0.67274537     0.33500
H599        H  0.64750997  0.90253129  0.69209160     0.32400
H600        H  0.53540707  0.81726198  0.75078707     0.34100
H601        H  0.52667992  0.70337065  0.82452457     0.33100
H602        H  0.80697689  0.76839788  0.63763359     0.37100
H603        H  0.70423691  0.75246710  0.60239751     0.29800
H604        H  0.70558070  0.81937967  0.92244418     0.34000
H605        H  0.59636488  0.75410914  0.88447719     0.36900
H606        H  0.64011343  0.87124370  0.65328865     0.29500
H607        H  0.74148817  0.71959025  0.61540116     0.42400
H608        H  0.83528299  0.64975794  0.76510810     0.32400
H609        H  0.85109409  0.75782883  0.70482029     0.40000
H610        H  0.52653260  0.73155533  0.78205336     0.31900
H611        H  0.77700457  0.61820877  0.81944410     0.32000
H612        H  0.69072222  0.77302580  0.91774083     0.32200
N613        N  0.45074353  0.64431517  0.68610355    -0.02300
C614        C  0.47712446  0.63037203  0.72023178     0.00300
C615        C  0.46684144  0.65091557  0.75913849    -0.22600
C616        C  0.43509621  0.68037101  0.74895937    -0.22800
C617        C  0.42630708  0.67680885  0.70392101     0.00200
H618        H  0.48393637  0.64751025  0.79060147     0.14000
H619        H  0.42044586  0.70257661  0.77221263     0.14000
N620        N  0.31375185  0.51172357  0.68218869    -0.02300
C621        C  0.29023291  0.47787226  0.69486131     0.00300
C622        C  0.27090444  0.48337131  0.73657015    -0.22600
C623        C  0.28302750  0.52238316  0.75002014    -0.22800
C624        C  0.30958956  0.53936475  0.71598390     0.00200
H625        H  0.24973623  0.46163121  0.75486117     0.14000
H626        H  0.27104306  0.53750786  0.78015684     0.14000
N627        N  0.44700553  0.37973394  0.65681012    -0.02300
C628        C  0.48244770  0.36050699  0.67773255     0.00300
C629        C  0.47949164  0.31824172  0.66875611    -0.22600
C630        C  0.43800618  0.31190982  0.64966259    -0.22800
C631        C  0.41576514  0.34969862  0.65025531     0.00200
H632        H  0.49837373  0.29249425  0.68156416     0.14000
H633        H  0.42159793  0.28190035  0.64863046     0.14000
N634        N  0.61435245  0.51982060  0.64269465    -0.02300
C635        C  0.62155391  0.47980146  0.65461152     0.00300
C636        C  0.66744599  0.46954428  0.65469414    -0.22600
C637        C  0.69031885  0.50497570  0.64446758    -0.22800
C638        C  0.65767720  0.53617628  0.63981268     0.00200
H639        H  0.68263358  0.44052928  0.66549367     0.14000
H640        H  0.72702832  0.50879526  0.64675303     0.14000
N641        N  0.43483800  0.40741636  0.34471309    -0.02300
C642        C  0.47565291  0.39611241  0.32490062     0.00300
C643        C  0.48081681  0.41560171  0.28415544    -0.22600
C644        C  0.43910927  0.43188747  0.27392929    -0.22800
C645        C  0.41006651  0.42128403  0.30870836     0.00200
H646        H  0.50826526  0.41017172  0.26017869     0.14000
H647        H  0.42945067  0.44158184  0.24092196     0.14000
N648        N  0.58566329  0.52580689  0.35943412    -0.02300
C649        C  0.60527158  0.48805992  0.36816379     0.00300
C650        C  0.65094161  0.49161584  0.37854474    -0.22600
C651        C  0.66233436  0.53167620  0.37075552    -0.22800
C652        C  0.62340846  0.55071466  0.35439032     0.00200
H653        H  0.67537117  0.46651013  0.38238340     0.14000
H654        H  0.69707295  0.54309604  0.36922725     0.14000
N655        N  0.43463631  0.68820343  0.39605330    -0.02300
C656        C  0.46392404  0.71760881  0.41150666     0.00300
C657        C  0.44021379  0.74947434  0.43258547    -0.22600
C658        C  0.39562606  0.74453749  0.42114491    -0.22800
C659        C  0.39529359  0.71078233  0.39255193     0.00200
H660        H  0.45435624  0.77795190  0.44530919     0.14000
H661        H  0.37017534  0.76919042  0.42275482     0.14000
N662        N  0.26667826  0.52717025  0.39632445    -0.02300
C663        C  0.24041037  0.49302379  0.40482789     0.00300
C664        C  0.20085971  0.50311131  0.42849973    -0.22600
C665        C  0.19828050  0.54513597  0.42901821    -0.22800
C666        C  0.23573340  0.55880629  0.40453314     0.00200
H667        H  0.17345387  0.48237876  0.43814423     0.14000
H668        H  0.16826520  0.56291574  0.43908556     0.14000
N669        N  0.56335329  0.68830678  0.50771332    -0.02300
C670        C  0.58777070  0.69648359  0.46991559     0.00300
C671        C  0.59659284  0.73835406  0.46622504    -0.22600
C672        C  0.57815238  0.75693308  0.50320430    -0.22800
C673        C  0.55867993  0.72588435  0.52908661     0.00200
H674        H  0.61543521  0.75366390  0.43972180     0.14000
H675        H  0.58254169  0.78921738  0.51178373     0.14000
N676        N  0.62097793  0.41372125  0.49843517    -0.02300
C677        C  0.65172745  0.42184537  0.46431678     0.00300
C678        C  0.68755427  0.44582611  0.47921127    -0.22600
C679        C  0.68595668  0.44324623  0.52424303    -0.22800
C680        C  0.64840170  0.41911126  0.53458408     0.00200
H681        H  0.71721584  0.45604442  0.46037357     0.14000
H682        H  0.71374677  0.45122941  0.54597048     0.14000
N683        N  0.26502085  0.63942685  0.51920387    -0.02300
C684        C  0.25533004  0.65545255  0.47849498     0.00300
C685        C  0.20868710  0.65802295  0.47221584    -0.22600
C686        C  0.18818042  0.64361653  0.51014671    -0.22800
C687        C  0.22304712  0.63276204  0.53881758     0.00200
H688        H  0.19144169  0.67069979  0.44356264     0.14000
H689        H  0.15164466  0.64361847  0.51651072     0.14000
N690        N  0.29574505  0.37730106  0.50603345    -0.02300
C691        C  0.26788072  0.37737503  0.46940642     0.00300
C692        C  0.22924782  0.40160188  0.47796779    -0.22600
C693        C  0.22517448  0.40286328  0.52309962    -0.22800
C694        C  0.26201993  0.37972894  0.53817424     0.00200
H695        H  0.20035377  0.40541625  0.45614843     0.14000
H696        H  0.19300725  0.40808475  0.54071388     0.14000
O697        O  0.82404062  0.91836104  0.99617685    -0.85300
O698        O  0.07992253  0.95197643  0.97631322    -0.85500
O699        O  0.94855236  0.88584837  0.90851061    -0.87100
O700        O  0.95383254  0.87870849  0.05266540    -0.85900
O701        O  0.95188503  0.92314511  0.11239981    -0.85500
O702        O  0.92866866  0.94048024  0.86402311    -0.86800
O703        O  0.03474223  0.89444790  0.98376073    -0.85300
O704        O  0.88507541  0.87463462  0.98238037    -0.84900
Zr705      Zr  0.95286347  0.91820179  0.98390487     2.84300
O706        O  0.99560186  0.96418618  0.02775598    -1.06900
O707        O  0.89469237  0.95680883  0.94862182    -1.07600
C708        C  0.84193217  0.88167207  0.98894406     1.07800
C709        C  0.07453153  0.91234734  0.98050019     1.07800
C710        C  0.93653230  0.90129313  0.87041923     1.10700
C711        C  0.95237481  0.88579418  0.09492806     1.08500
H712        H  0.00601973  0.95337595  0.91639052     0.34100
O713        O  0.98687780  0.96789999  0.93787431    -1.27800
H714        H  0.88888933  0.93342862  0.05568924     0.33800
O715        O  0.90508949  0.95318895  0.03730743    -1.29500
O716        O  0.06379536  0.08408334  0.98605601    -0.85300
O717        O  0.79976031  0.05420426  0.00803781    -0.86800
O718        O  0.99675140  0.00887067  0.85730227    -0.85400
O719        O  0.03070962  0.00320611  0.10848712    -0.85400
O720        O  0.87372712  0.00327311  0.12399107    -0.85100
O721        O  0.84933241  0.00500798  0.87632431    -0.84900
O722        O  0.92817756  0.12500831  0.92162569    -0.85300
O723        O  0.93691172  0.11696092  0.07825941    -0.84800
O724        O  0.92635966  0.07405059  0.86824144    -0.85800
O725        O  0.95214546  0.06312583  0.12650867    -0.85000
O726        O  0.05786564  0.01844336  0.90304863    -0.85400
O727        O  0.79914729  0.99433842  0.93420607    -0.85100
O728        O  0.81588689  0.99014544  0.07530983    -0.84800
O729        O  0.07601883  0.01194837  0.04623985    -0.85200
O730        O  0.00528095  0.13084434  0.99885785    -0.85500
O731        O  0.84453205  0.11273265  0.00598776    -0.86800
Zr732      Zr  0.03025240  0.01372402  0.98052454     2.83100
Zr733      Zr  0.84856498  0.99227867  0.00045137     2.83500
Zr734      Zr  0.92867007  0.00680221  0.90381645     2.84100
Zr735      Zr  0.94918778  0.99722925  0.08285999     2.83400
Zr736      Zr  0.92923249  0.09065600  0.99867721     2.84200
O737        O  0.89515392  0.03707933  0.04257167    -1.07400
O738        O  0.97353203  0.05309417  0.94544415    -1.06900
C739        C  0.04921481  0.12173760  0.99383200     1.07800
C740        C  0.80444771  0.09417406  0.00848348     1.10400
C741        C  0.03969417  0.01402818  0.86435273     1.08000
C742        C  0.07026472  0.00908771  0.08865547     1.08300
C743        C  0.83050813  0.99950841  0.11431539     1.07900
C744        C  0.80807461  0.00048806  0.89243467     1.07500
C745        C  0.92788808  0.11256153  0.87992508     1.07900
C746        C  0.94660502  0.10256312  0.11810523     1.07400
H747        H  0.86145395  0.05946016  0.94068422     0.34100
O748        O  0.88434006  0.04360952  0.95637838    -1.28500
H749        H  0.00269509  0.06422712  0.05177433     0.34100
O750        O  0.98320755  0.04686947  0.03418435    -1.29900
O751        O  0.43217669  0.63797750  0.60866578    -0.85300
O752        O  0.45249994  0.40347197  0.58091038    -0.85500
O753        O  0.38626381  0.51774492  0.65105338    -0.87100
O754        O  0.53449134  0.52043281  0.63160658    -0.85900
O755        O  0.58183631  0.53932648  0.57394693    -0.85500
O756        O  0.32488929  0.51098995  0.60506958    -0.86800
O757        O  0.45766241  0.44971685  0.63891476    -0.85300
O758        O  0.45395491  0.58120938  0.64924673    -0.84900
Zr759      Zr  0.45465634  0.51826043  0.60474754     2.84300
O760        O  0.49816989  0.48570277  0.54853095    -1.06900
O761        O  0.39541203  0.55862548  0.57385301    -1.07600
C762        C  0.44481921  0.62035560  0.64556425     1.07800
C763        C  0.45369679  0.41253950  0.62365254     1.07800
C764        C  0.34314454  0.51416500  0.64385635     1.10700
C765        C  0.57474641  0.52896272  0.61514421     1.08500
H766        H  0.39162439  0.45540682  0.57910703     0.34100
O767        O  0.40818938  0.47485795  0.56068419    -1.27800
H768        H  0.50628968  0.58869218  0.58065719     0.33800
O769        O  0.48729548  0.57141691  0.56249324    -1.29500
O770        O  0.44620500  0.41665673  0.42404442    -0.85300
O771        O  0.42816940  0.65457373  0.46450993    -0.86800
O772        O  0.31781270  0.44707318  0.51899062    -0.85400
O773        O  0.58165339  0.47770768  0.50101499    -0.85400
O774        O  0.55546029  0.61484367  0.50617423    -0.85100
O775        O  0.30151206  0.57641550  0.53254198    -0.84900
O776        O  0.34888925  0.53538428  0.40107250    -0.85300
O777        O  0.50704420  0.53512486  0.38259578    -0.84800
O778        O  0.30497892  0.52008614  0.46274567    -0.85800
O779        O  0.56520371  0.54310593  0.43230837    -0.85000
O780        O  0.37570866  0.40058181  0.50317434    -0.85400
O781        O  0.34587174  0.63468117  0.52837918    -0.85100
O782        O  0.49467475  0.65616970  0.52778238    -0.84800
O783        O  0.53752249  0.41872411  0.50003687    -0.85200
O784        O  0.42971376  0.47339002  0.38015716    -0.85500
O785        O  0.43258411  0.61350610  0.40208758    -0.86800
Zr786      Zr  0.45242705  0.44015837  0.50518160     2.83100
Zr787      Zr  0.42792472  0.61130098  0.53053202     2.83500
Zr788      Zr  0.35214026  0.51610779  0.52752084     2.84100
Zr789      Zr  0.53276245  0.53987970  0.50733216     2.83400
Zr790      Zr  0.43191981  0.53763198  0.42585345     2.84200
O791        O  0.47456200  0.57959254  0.47437288    -1.07400
O792        O  0.39873609  0.48562801  0.47196876    -1.06900
C793        C  0.43660730  0.43363364  0.38534704     1.07800
C794        C  0.43157287  0.64978217  0.42196389     1.10400
C795        C  0.33186674  0.40980845  0.50920832     1.08000
C796        C  0.57745484  0.43767668  0.49947003     1.08300
C797        C  0.53684991  0.65090762  0.51535710     1.07900
C798        C  0.30642883  0.61599834  0.52857040     1.07500
C799        C  0.30948246  0.52780617  0.42090425     1.07900
C800        C  0.55049128  0.53694229  0.39254414     1.07400
H801        H  0.36321349  0.58425654  0.46812854     0.34100
O802        O  0.38620443  0.56786427  0.48294601    -1.28500
H803        H  0.50578741  0.48185579  0.44213339     0.34100
O804        O  0.48628608  0.49568478  0.46377762    -1.29900
C805        C  0.55851243  0.76887331  0.59863756    -0.15200
C806        C  0.55268065  0.73132460  0.57818985    -0.30400
H807        H  0.55078755  0.79755870  0.58126675     0.13800
H808        H  0.55739144  0.70317752  0.59759602     0.14400
C809        C  0.70189013  0.58599721  0.68646106    -0.15200
C810        C  0.66975838  0.57906640  0.65438074    -0.30400
H811        H  0.71688013  0.56005309  0.70431528     0.13800
H812        H  0.65166814  0.60494896  0.63935427     0.14400
C813        C  0.55293137  0.62999272  0.68956923    -0.15200
C814        C  0.52250775  0.61033470  0.71546147    -0.30400
H815        H  0.54261053  0.63902543  0.65634105     0.13800
H816        H  0.53543492  0.59781853  0.74647668     0.14400
C817        C  0.65039785  0.38888025  0.57215381    -0.15200
C818        C  0.69077834  0.37401654  0.58889904    -0.30400
H819        H  0.61788720  0.37809661  0.58559398     0.13800
H820        H  0.72328504  0.38337878  0.57423895     0.14400
C821        C  0.50626424  0.35704584  0.76120433    -0.15200
C822        C  0.49464698  0.37714932  0.72280679    -0.30400
H823        H  0.50233566  0.37518234  0.79147222     0.13800
H824        H  0.48295483  0.40897162  0.72772121     0.14400
C825        C  0.59294424  0.44833768  0.72075164    -0.15200
C826        C  0.58754400  0.45327459  0.67674115    -0.30400
H827        H  0.60287131  0.47533554  0.73992163     0.13800
H828        H  0.57751657  0.42672463  0.65702329     0.14400
C829        C  0.17467905  0.63612976  0.60799503    -0.15200
C830        C  0.21566234  0.62749417  0.58745795    -0.30400
H831        H  0.14325937  0.63734638  0.58932207     0.13800
H832        H  0.24663730  0.62597941  0.60697996     0.14400
C833        C  0.38690215  0.74380290  0.69949895    -0.15200
C834        C  0.39338748  0.70515083  0.68212763    -0.30400
H835        H  0.41257810  0.75658754  0.72124968     0.13800
H836        H  0.36862515  0.69168639  0.65989077     0.14400
C837        C  0.31814913  0.60782720  0.74963113    -0.15200
C838        C  0.31904992  0.58442027  0.71257415    -0.30400
H839        H  0.32333323  0.59266521  0.78147065     0.13800
H840        H  0.31486637  0.59881982  0.68020748     0.14400
C841        C  0.25153831  0.34255920  0.56620158    -0.15200
C842        C  0.21019084  0.32275447  0.56706709    -0.30400
H843        H  0.27955549  0.33059968  0.58552279     0.13800
H844        H  0.18176162  0.33453651  0.54781314     0.14400
C845        C  0.24385260  0.42737709  0.65891531    -0.15200
C846        C  0.28609050  0.43946303  0.66926564    -0.30400
H847        H  0.21707280  0.45100838  0.65687517     0.13800
H848        H  0.31318536  0.41665065  0.67365606     0.14400
C849        C  0.37317284  0.34205214  0.72266723    -0.15200
C850        C  0.37284497  0.34871596  0.67773619    -0.30400
H851        H  0.40327352  0.34920950  0.74181316     0.13800
H852        H  0.34235610  0.34097695  0.65965074     0.14400
C853        C  0.12905396  0.19013034  0.93595294    -0.15200
C854        C  0.17105479  0.20902646  0.93257607    -0.30400
H855        H  0.10070078  0.20196930  0.91668586     0.13800
H856        H  0.19943218  0.19806717  0.95242758     0.14400
C857        C  0.64784370  0.66833594  0.42297266    -0.15200
C858        C  0.60328756  0.66676350  0.43523138    -0.30400
H859        H  0.67223387  0.67463288  0.44906116     0.13800
H860        H  0.57805813  0.65927160  0.41049448     0.14400
C861        C  0.51981406  0.76503776  0.37233640    -0.15200
C862        C  0.50667098  0.72644374  0.38617884    -0.30400
H863        H  0.50222586  0.79280250  0.38411694     0.13800
H864        H  0.52418259  0.69921267  0.37299270     0.14400
C865        C  0.66729767  0.58763508  0.29351709    -0.15200
C866        C  0.62789423  0.58243474  0.31826823    -0.30400
H867        H  0.69710571  0.56809510  0.29905417     0.13800
H868        H  0.59797780  0.60160836  0.31171836     0.14400
C869        C  0.70424412  0.38283085  0.40920188    -0.15200
C870        C  0.66184405  0.39015309  0.42863988    -0.30400
H871        H  0.73302821  0.40277196  0.41574572     0.13800
H872        H  0.63369357  0.36981652  0.42068806     0.14400
C873        C  0.60592294  0.44095249  0.30582905    -0.15200
C874        C  0.59105387  0.44869827  0.34764158    -0.30400
H875        H  0.61506617  0.46717560  0.28476452     0.13800
H876        H  0.58403626  0.42294087  0.36995036     0.14400
C877        C  0.49761315  0.32599044  0.29444603    -0.15200
C878        C  0.49666822  0.35360397  0.32923881    -0.30400
H879        H  0.47590639  0.33199309  0.26610132     0.13800
H880        H  0.51829654  0.34838217  0.35776890     0.14400
C881        C  0.28454938  0.71481154  0.43994727    -0.15200
C882        C  0.28753352  0.67337726  0.44548358    -0.30400
H883        H  0.27738406  0.73337634  0.46947325     0.13800
H884        H  0.29409326  0.65423468  0.41640702     0.14400
C885        C  0.18881037  0.61147804  0.36216216    -0.15200
C886        C  0.23046026  0.59505402  0.37399117    -0.30400
H887        H  0.15715784  0.59920378  0.37587489     0.13800
H888        H  0.26174232  0.60701319  0.35902065     0.14400
C889        C  0.37528235  0.71767057  0.34801120    -0.15200
C890        C  0.37634290  0.75547353  0.32769607    -0.30400
H891        H  0.35761167  0.69185996  0.33297497     0.13800
H892        H  0.39469292  0.78094407  0.34269066     0.14400
C893        C  0.15321005  0.95429245  0.14487157    -0.15200
C894        C  0.19567083  0.94234612  0.15839467    -0.30400
H895        H  0.12297913  0.94247786  0.16195306     0.13800
H896        H  0.22645651  0.95376880  0.14212669     0.14400
C897        C  0.21736022  0.31788131  0.44113245    -0.15200
C898        C  0.25928119  0.33763634  0.44353243    -0.30400
H899        H  0.18854556  0.32938144  0.46087631     0.13800
H900        H  0.28826347  0.32521111  0.42478576     0.14400
C901        C  0.34949197  0.39178062  0.25614003    -0.15200
C902        C  0.36412988  0.40314639  0.29803378    -0.30400
H903        H  0.36882215  0.40022805  0.22652542     0.13800
H904        H  0.34424585  0.39379368  0.32708529     0.14400
C905        C  0.20567683  0.43920140  0.35986090    -0.15200
C906        C  0.24381538  0.45361666  0.37927936    -0.30400
H907        H  0.17476598  0.45829906  0.36084365     0.13800
H908        H  0.27643812  0.43740278  0.37580588     0.14400
C909        C  0.11582023  0.19339793  0.06311570    -0.15200
C910        C  0.15655939  0.21382973  0.07041640    -0.30400
H911        H  0.08473552  0.20416012  0.07982741     0.13800
H912        H  0.18749740  0.20409700  0.05274173     0.14400
C913        C  0.12784138  0.08993610  0.12838238    -0.15200
C914        C  0.16466198  0.10595919  0.14835157    -0.30400
H915        H  0.09408508  0.10400423  0.13230342     0.13800
H916        H  0.19693762  0.08885304  0.14664753     0.14400
C917        C  0.89745344  0.19037294  0.16850522    -0.15200
C918        C  0.89449974  0.22162225  0.19967520    -0.30400
H919        H  0.86637593  0.17578786  0.15706860     0.13800
H920        H  0.92531510  0.23405260  0.21418390     0.14400
C921        C  0.00802891  0.11950225  0.21812712    -0.15200
C922        C  0.02877916  0.13638789  0.25545357    -0.30400
H923        H  0.99235728  0.08950812  0.22412144     0.13800
H924        H  0.02791714  0.11665958  0.28475833     0.14400
C925        C  0.72076981  0.94645399  0.21525375    -0.15200
C926        C  0.75620620  0.95190959  0.18555003    -0.30400
H927        H  0.69343116  0.96938045  0.21797301     0.13800
H928        H  0.78405347  0.92940106  0.18340040     0.14400
C929        C  0.79617494  0.08910164  0.15499831    -0.15200
C930        C  0.78818299  0.09836622  0.19805012    -0.30400
H931        H  0.79823074  0.11410238  0.13084433     0.13800
H932        H  0.78444772  0.07295526  0.22164539     0.14400
C933        C  0.00550659  0.84025063  0.18591347    -0.15200
C934        C  0.00082222  0.80804139  0.21494029    -0.30400
H935        H  0.02632633  0.86678178  0.19420024     0.13800
H936        H  0.98039444  0.78155851  0.20533639     0.14400
C937        C  0.88434671  0.80288093  0.11493191    -0.15200
C938        C  0.86946321  0.76431413  0.12763587    -0.30400
H939        H  0.86153131  0.82953023  0.11846248     0.13800
H940        H  0.89188770  0.73738265  0.12506544     0.14400
C941        C  0.05768550  0.94556353  0.79308190    -0.15200
C942        C  0.05763295  0.92254066  0.75588426    -0.30400
H943        H  0.06197436  0.93064964  0.82518200     0.13800
H944        H  0.05261445  0.93805518  0.72421684     0.14400
C945        C  0.10607911  0.08355737  0.84311496    -0.15200
C946        C  0.15035447  0.09324501  0.84582124    -0.30400
H947        H  0.08008595  0.10776095  0.84569747     0.13800
H948        H  0.17535483  0.06808912  0.84276971     0.14400
C949        C  0.86283444  0.91398549  0.79930549    -0.15200
C950        C  0.82887116  0.89933552  0.82491045    -0.30400
H951        H  0.85268913  0.92540370  0.76685000     0.13800
H952        H  0.83557858  0.89510493  0.86006966     0.14400
C953        C  0.99120293  0.77182507  0.82533306    -0.15200
C954        C  0.98221471  0.81073611  0.84143818    -0.30400
H955        H  0.96485910  0.75564850  0.80722022     0.13800
H956        H  0.00747262  0.82679336  0.86100862     0.14400
C957        C  0.87314615  0.19865279  0.82761499    -0.15200
C958        C  0.87617669  0.22413934  0.79142676    -0.30400
H959        H  0.85179949  0.20723813  0.85600401     0.13800
H960        H  0.89724259  0.21459544  0.76309084     0.14400
C961        C  0.99934324  0.14571447  0.79449503    -0.15200
C962        C  0.01302099  0.15798753  0.75280669    -0.30400
H963        H  0.01987545  0.15352952  0.82299157     0.13800
H964        H  0.99267475  0.15148302  0.72384924     0.14400
C965        C  0.71857921  0.94259885  0.85242597    -0.15200
C966        C  0.67980650  0.93669644  0.82807426    -0.30400
H967        H  0.72931531  0.91955572  0.87653255     0.13800
H968        H  0.66963926  0.96066681  0.80467875     0.14400
C969        C  0.78362488  0.10879163  0.81009119    -0.15200
C970        C  0.77323233  0.08125127  0.84199286    -0.30400
H971        H  0.80042464  0.09757047  0.78005068     0.13800
H972        H  0.75510194  0.09104757  0.87199895     0.14400
C973        C  0.09863385  0.84352467  0.05312395    -0.15200
C974        C  0.10378891  0.86069000  0.09325858    -0.30400
H975        H  0.09374249  0.81015076  0.05207975     0.13800
H976        H  0.10827166  0.89406315  0.09492494     0.14400
C977        C  0.19978138  0.90494168  0.88942794    -0.15200
C978        C  0.15962153  0.90838186  0.91301223    -0.30400
H979        H  0.23207164  0.90664034  0.90669040     0.13800
H980        H  0.12748397  0.90966405  0.89529082     0.14400
C981        C  0.67576415  0.15519013  0.09210104    -0.15200
C982        C  0.71919260  0.14556031  0.07674469    -0.30400
H983        H  0.64681791  0.13589478  0.08411995     0.13800
H984        H  0.74735553  0.16553499  0.08565630     0.14400
C985        C  0.68319296  0.16203515  0.93081246    -0.15200
C986        C  0.72560509  0.14764781  0.94236947    -0.30400
H987        H  0.65236237  0.14652466  0.94228138     0.13800
H988        H  0.75597518  0.16399533  0.93098961     0.14400
C989        C  0.72017238  0.87102847  0.07149940    -0.15200
C990        C  0.76359948  0.87134721  0.05628737    -0.30400
H991        H  0.69356444  0.86802944  0.04678317     0.13800
H992        H  0.79106789  0.87722883  0.07936420     0.14400
C993        C  0.84211897  0.79869309  0.92836697    -0.15200
C994        C  0.83783391  0.76065161  0.90879505    -0.30400
H995        H  0.84548202  0.82545262  0.90659060     0.13800
H996        H  0.84218862  0.73318228  0.92930222     0.14400
loop_ 
_geom_bond_atom_site_label_1 
_geom_bond_atom_site_label_2 
_geom_bond_distance 
_geom_bond_site_symmetry_2 
_ccdc_geom_bond_type 
N1            C5   1.374       .  A
N1            C2   1.357   1_556  A
N1          C708   1.452       .  S
C2            C3   1.383       .  A
C2          C990   1.479       .  S
C3            C4   1.364   1_554  A
C3            H6   1.082       .  S
C4            C5   1.387       .  A
C4            H7   1.082       .  S
C5          C993   1.495       .  S
N8           C12   1.369   1_554  A
N8            C9   1.375       .  A
N8          C740   1.478       .  S
C9           C10   1.386       .  A
C9          C982   1.505       .  S
C10          C11   1.361   1_554  A
C10          H13   1.082       .  S
C11          C12   1.384       .  A
C11          H14   1.083       .  S
C12         C986   1.491       .  S
N15          C19   1.373       .  A
N15          C16   1.366   1_556  A
N15         C709   1.457       .  S
C16          C17   1.376       .  A
C16         C973   1.475       .  S
C17          C18   1.361   1_554  A
C17          H20   1.083       .  S
C18          C19   1.388       .  A
C18          H21   1.081       .  S
C19         C978   1.492       .  S
N22          C26   1.372   1_545  A
N22          C23   1.361       .  A
N22         C744   1.460       .  S
C23          C24   1.384       .  A
C23         C970   1.484       .  S
C24          C25   1.352   1_545  A
C24          H27   1.081       .  S
C25          C26   1.383       .  A
C25          H28   1.083       .  S
C26         C965   1.498       .  S
N29          C33   1.374       .  A
N29          C30   1.364       .  A
N29         C745   1.472       .  S
C30          C31   1.388       .  A
C30         C957   1.492       .  S
C31          C32   1.354       .  A
C31          H34   1.083       .  S
C32          C33   1.379       .  A
C32          H35   1.082       .  S
C33         C961   1.483       .  S
N36          C40   1.373       .  A
N36          C37   1.365       .  A
N36         C710   1.464       .  S
C37          C38   1.373       .  A
C37         C949   1.471       .  S
C38          C39   1.357       .  A
C38          H41   1.083       .  S
C39          C40   1.390       .  A
C39          H42   1.082       .  S
C40         C954   1.483       .  S
N43          C47   1.354   1_545  A
N43          C44   1.343       .  A
N43         C741   1.429       .  S
C44          C45   1.381       .  A
C44         C945   1.465       .  S
C45          C46   1.372       .  A
C45          H48   1.082       .  S
C46          C47   1.390   1_545  A
C46          H49   1.082   1_545  S
C47         C941   1.481       .  S
N50          C54   1.359       .  A
N50          C51   1.373       .  A
N50         C711   1.465       .  S
C51          C52   1.379       .  A
C51         C937   1.487       .  S
C52          C53   1.362   1_655  A
C52          H55   1.082       .  S
C53          C54   1.388   1_455  A
C53          H56   1.083       .  S
C54         C933   1.487   1_655  S
N57          C61   1.372   1_545  A
N57          C58   1.363       .  A
N57         C743   1.456   1_545  S
C58          C59   1.379       .  A
C58         C929   1.470       .  S
C59          C60   1.354       .  A
C59          H62   1.082       .  S
C60          C61   1.383   1_545  A
C60          H63   1.082   1_545  S
C61         C926   1.490       .  S
N64          C68   1.377       .  A
N64          C65   1.367       .  A
N64         C746   1.489       .  S
C65          C66   1.375       .  A
C65         C917   1.496       .  S
C66          C67   1.366   1_655  A
C66          H69   1.081       .  S
C67          C68   1.379   1_455  A
C67          H70   1.073       .  S
C68         C921   1.530   1_655  S
Zr71         O72   2.444       .  S
Zr71         O73   2.430       .  S
Zr71         O74   2.319       .  S
Zr71         O77   2.362       .  S
Zr71         O79   2.373       .  S
Zr71         O80   2.387       .  S
Zr71         O81   2.392       .  S
Zr71         O82   2.386       .  S
O72         H128   0.990       .  S
O72         H136   0.990       .  S
O73          C93   1.283       .  A
O74          C95   1.262       .  A
O75         Zr85   2.563       .  S
O75          C94   1.306       .  A
O76         Zr84   2.573       .  S
O76          C95   1.314       .  A
O77          C94   1.259       .  A
O78         Zr86   2.432       .  S
O78          C93   1.285       .  A
O79         Zr84   2.384       .  S
O79         Zr86   2.367       .  S
O80         Zr85   2.417       .  S
O80         Zr86   2.358       .  S
O80         H115   0.965       .  S
O81         Zr84   2.403       .  S
O81        Zr101   2.393       .  S
O81         H118   0.966       .  S
O82         Zr85   2.408       .  S
O82        Zr101   2.389       .  S
Zr83        O108   2.438       .  S
Zr83        O102   2.442       .  S
Zr83        O110   2.373       .  S
Zr83         O98   2.367       .  S
Zr83         O89   2.384       .  S
Zr83         O90   2.399       .  S
Zr83         O91   2.391       .  S
Zr83         O92   2.383       .  S
Zr84        O103   2.434       .  S
Zr84         O96   2.436       .  S
Zr84         O97   2.565       .  S
Zr84         O90   2.411       .  S
Zr84         O91   2.386       .  S
Zr85         O87   2.434       .  S
Zr85        O109   2.433       .  S
Zr85        O111   2.576       .  S
Zr85         O89   2.408       .  S
Zr85         O92   2.398       .  S
Zr86        O112   2.434       .  S
Zr86        O113   2.437       .  S
Zr86         O88   2.437       .  S
Zr86         O89   2.407       .  S
Zr86         O90   2.388       .  S
O87         H124   0.990       .  S
O88         H119   0.990       .  S
O88         H133   0.990       .  S
O90         H116   0.967       .  S
O91        Zr101   2.363       .  S
O92        Zr101   2.359       .  S
O92         H117   0.963       .  S
C93         C905   1.472       .  S
C94         C897   1.512       .  S
C95         C901   1.506       .  S
O96         H132   0.990       .  S
O97          C99   1.310       .  A
O98          C99   1.263       .  A
C99         C910   1.507       .  S
O100       Zr101   2.434       .  S
O100        H129   0.990       .  S
Zr101       O104   2.435       .  S
Zr101       O105   2.438       .  S
Zr101       O106   2.414       .  S
O102        C107   1.284       .  A
O103        H120   0.990       .  S
O103        H135   0.990       .  S
O104        H121   0.990       .  S
O105        H125   0.990       .  S
O105        H134   0.990       .  S
O106        C107   1.281       .  A
C107        C914   1.467       .  S
O108        H127   0.991       .  S
O108        H131   0.989       .  S
O109        H123   0.990       .  S
O109        H130   0.990       .  S
O110        C114   1.261       .  A
O111        C114   1.314       .  A
O112        H122   0.990       .  S
O113        H126   0.990       .  S
C114        C922   1.517       .  S
N137        C141   1.368   1_545  A
N137        C138   1.363       .  A
N137        C742   1.453       .  S
C138        C139   1.386       .  A
C138        C913   1.484       .  S
C139        C140   1.356       .  A
C139        H142   1.081       .  S
C140        C141   1.384   1_545  A
C140        H143   1.082   1_545  S
C141        C893   1.485       .  S
Zr144       O145   2.439       .  S
Zr144       O146   2.443       .  S
Zr144       O147   2.387       .  S
Zr144       O150   2.360       .  S
Zr144       O152   2.377       .  S
Zr144       O153   2.384       .  S
Zr144       O154   2.404       .  S
Zr144       O155   2.397       .  S
O145        H201   0.990       .  S
O145        H209   0.990       .  S
O146        C166   1.286       .  A
O147        C168   1.267       .  A
O148       Zr158   2.525       .  S
O148        C167   1.304       .  A
O149       Zr157   2.480       .  S
O149        C168   1.291       .  A
O150        C167   1.271       .  A
O151       Zr159   2.438       .  S
O151        C166   1.285       .  A
O152       Zr157   2.383       .  S
O152       Zr159   2.354       .  S
O153       Zr158   2.382       .  S
O153       Zr159   2.362       .  S
O153        H188   0.964       .  S
O154       Zr157   2.409       .  S
O154       Zr174   2.404       .  S
O154        H191   0.966       .  S
O155       Zr158   2.401       .  S
O155       Zr174   2.411       .  S
Zr156       O181   2.439       .  S
Zr156       O175   2.420       .  S
Zr156       O183   2.402       .  S
Zr156       O171   2.382       .  S
Zr156       O162   2.396       .  S
Zr156       O163   2.398       .  S
Zr156       O164   2.373       .  S
Zr156       O165   2.390       .  S
Zr157       O176   2.435       .  S
Zr157       O169   2.434       .  S
Zr157       O170   2.475       .  S
Zr157       O163   2.410       .  S
Zr157       O164   2.386       .  S
Zr158       O160   2.433       .  S
Zr158       O182   2.436       .  S
Zr158       O184   2.481       .  S
Zr158       O162   2.416       .  S
Zr158       O165   2.422       .  S
Zr159       O185   2.436       .  S
Zr159       O186   2.435       .  S
Zr159       O161   2.437       .  S
Zr159       O162   2.397       .  S
Zr159       O163   2.399       .  S
O160        H197   0.990       .  S
O161        H192   0.990       .  S
O161        H206   0.990       .  S
O163        H189   0.966       .  S
O164       Zr174   2.360       .  S
O165       Zr174   2.349       .  S
O165        H190   0.963       .  S
C166        C881   1.485       .  S
C167        C885   1.487       .  S
C168        C890   1.475       .  S
O169        H205   0.990       .  S
O170        C172   1.292       .  A
O171        C172   1.274       .  A
C172        C894   1.474       .  S
O173       Zr174   2.436       .  S
O173        H202   0.990       .  S
Zr174       O177   2.435       .  S
Zr174       O178   2.440       .  S
Zr174       O179   2.468       .  S
O175        C180   1.280       .  A
O176        H193   0.990       .  S
O176        H208   0.990       .  S
O177        H194   0.990       .  S
O178        H198   0.990       .  S
O178        H207   0.989       .  S
O179        C180   1.291       .  A
C180        C974   1.488       .  S
O181        H200   0.990       .  S
O181        H204   0.990       .  S
O182        H196   0.990       .  S
O182        H203   0.990       .  S
O183        C187   1.272       .  A
O184        C187   1.293       .  A
O185        H195   0.990       .  S
O186        H199   0.990       .  S
C187        C934   1.479       .  S
Zr210       O211   2.441       .  S
Zr210       O212   2.419       .  S
Zr210       O213   2.340       .  S
Zr210       O216   2.369       .  S
Zr210       O218   2.373       .  S
Zr210       O219   2.379       .  S
Zr210       O220   2.393       .  S
Zr210       O221   2.386       .  S
O211        H267   0.991       .  S
O211        H275   0.990       .  S
O212        C232   1.282       .  A
O213        C234   1.267       .  A
O214       Zr224   2.522       .  S
O214        C233   1.299       .  A
O215       Zr223   2.559       .  S
O215        C234   1.311       .  A
O216        C233   1.267       .  A
O217       Zr225   2.443       .  S
O217        C232   1.285       .  A
O218       Zr223   2.382       .  S
O218       Zr225   2.359       .  S
O219       Zr224   2.405       .  S
O219       Zr225   2.362       .  S
O219        H254   0.965       .  S
O220       Zr223   2.404       .  S
O220       Zr240   2.391       .  S
O220        H257   0.965       .  S
O221       Zr224   2.411       .  S
O221       Zr240   2.403       .  S
Zr222       O247   2.441       .  S
Zr222       O241   2.438       .  S
Zr222       O249   2.385       .  S
Zr222       O237   2.360       .  S
Zr222       O228   2.389       .  S
Zr222       O229   2.412       .  S
Zr222       O230   2.389       .  S
Zr222       O231   2.381       .  S
Zr223       O242   2.436       .  S
Zr223       O235   2.435       .  S
Zr223       O236   2.541       .  S
Zr223       O229   2.414       .  S
Zr223       O230   2.395       .  S
Zr224       O226   2.434       .  S
Zr224       O248   2.435       .  S
Zr224       O250   2.530       .  S
Zr224       O228   2.402       .  S
Zr224       O231   2.404       .  S
Zr225       O251   2.436       .  S
Zr225       O252   2.436       .  S
Zr225       O227   2.436       .  S
Zr225       O228   2.413       .  S
Zr225       O229   2.391       .  S
O226        H263   0.990       .  S
O227        H258   0.990       .  S
O227        H272   0.990       .  S
O229        H255   0.966       .  S
O230       Zr240   2.364       .  S
O231       Zr240   2.363       .  S
O231        H256   0.963       .  S
C232        C930   1.479       .  S
C233        C981   1.493       .  S
C234        C918   1.501       .  S
O235        H271   0.990       .  S
O236        C238   1.304       .  A
O237        C238   1.264       .  A
C238        C869   1.496       .  S
O239       Zr240   2.436       .  S
O239        H268   0.990       .  S
Zr240       O243   2.435       .  S
Zr240       O244   2.437       .  S
Zr240       O245   2.438       .  S
O241        C246   1.285       .  A
O242        H259   0.990       .  S
O242        H274   0.990       .  S
O243        H260   0.990       .  S
O244        H264   0.990       .  S
O244        H273   0.990       .  S
O245        C246   1.285       .  A
C246        C873   1.482       .  S
O247        H266   0.990       .  S
O247        H270   0.990       .  S
O248        H262   0.990       .  S
O248        H269   0.990       .  S
O249        C253   1.271       .  A
O250        C253   1.304       .  A
O251        H261   0.991       .  S
O252        H265   0.990       .  S
C253        C877   1.497       .  S
Zr276       O277   2.439       .  S
Zr276       O278   2.429       .  S
Zr276       O279   2.374       .  S
Zr276       O282   2.360       .  S
Zr276       O284   2.385       .  S
Zr276       O285   2.378       .  S
Zr276       O286   2.400       .  S
Zr276       O287   2.389       .  S
O277        H333   0.990       .  S
O277        H341   0.990       .  S
O278        C298   1.283       .  A
O279        C300   1.264       .  A
O280       Zr290   2.505       .  S
O280        C299   1.299       .  A
O281       Zr289   2.515       .  S
O281        C300   1.299       .  A
O282        C299   1.273       .  A
O283       Zr291   2.445       .  S
O283        C298   1.286       .  A
O284       Zr289   2.393       .  S
O284       Zr291   2.356       .  S
O285       Zr290   2.386       .  S
O285       Zr291   2.362       .  S
O285        H320   0.963       .  S
O286       Zr289   2.411       .  S
O286       Zr306   2.391       .  S
O286        H323   0.966       .  S
O287       Zr290   2.408       .  S
O287       Zr306   2.400       .  S
Zr288       O313   2.442       .  S
Zr288       O307   2.423       .  S
Zr288       O315   2.370       .  S
Zr288       O303   2.342       .  S
Zr288       O294   2.388       .  S
Zr288       O295   2.396       .  S
Zr288       O296   2.371       .  S
Zr288       O297   2.379       .  S
Zr289       O308   2.435       .  S
Zr289       O301   2.435       .  S
Zr289       O302   2.524       .  S
Zr289       O295   2.403       .  S
Zr289       O296   2.388       .  S
Zr290       O292   2.433       .  S
Zr290       O314   2.435       .  S
Zr290       O316   2.503       .  S
Zr290       O294   2.402       .  S
Zr290       O297   2.395       .  S
Zr291       O317   2.437       .  S
Zr291       O318   2.434       .  S
Zr291       O293   2.437       .  S
Zr291       O294   2.402       .  S
Zr291       O295   2.403       .  S
O292        H329   0.990       .  S
O293        H324   0.990       .  S
O293        H338   0.990       .  S
O295        H321   0.965       .  S
O296       Zr306   2.374       .  S
O297       Zr306   2.361       .  S
O297        H322   0.964       .  S
C298        C857   1.481       .  S
C299        C861   1.485       .  S
C300        C865   1.486       .  S
O301        H337   0.990       .  S
O302        C304   1.302       .  A
O303        C304   1.268       .  A
C304        C938   1.491       .  S
O305       Zr306   2.436       .  S
O305        H334   0.990       .  S
Zr306       O309   2.436       .  S
Zr306       O310   2.437       .  S
Zr306       O311   2.426       .  S
O307        C312   1.282       .  A
O308        H325   0.990       .  S
O308        H340   0.990       .  S
O309        H326   0.990       .  S
O310        H330   0.990       .  S
O310        H339   0.990       .  S
O311        C312   1.283       .  A
C312        C989   1.470       .  S
O313        H332   0.991       .  S
O313        H336   0.990       .  S
O314        H328   0.990       .  S
O314        H335   0.991       .  S
O315        C319   1.266       .  A
O316        C319   1.296       .  A
O317        H327   0.990       .  S
O318        H331   0.990       .  S
C319        C925   1.481       .  S
N342        C346   1.375       .  A
N342        C343   1.379   1_556  A
N342        C739   1.497       .  S
C343        C344   1.384       .  A
C343        C909   1.518       .  S
C344        C345   1.360   1_554  A
C344        H347   1.081       .  S
C345        C346   1.384       .  A
C345        H348   1.083       .  S
C346        C853   1.508       .  S
Zr349       O350   2.442       .  S
Zr349       O351   2.409       .  S
Zr349       O352   2.349       .  S
Zr349       O355   2.370       .  S
Zr349       O357   2.374       .  S
Zr349       O358   2.387       .  S
Zr349       O359   2.391       .  S
Zr349       O360   2.386       .  S
O350        H406   0.990       .  S
O350        H414   0.990       .  S
O351        C371   1.280       .  A
O352        C373   1.269       .  A
O353       Zr363   2.520       .  S
O353        C372   1.297       .  A
O354       Zr362   2.504       .  S
O354        C373   1.299       .  A
O355        C372   1.263       .  A
O356       Zr364   2.415       .  S
O356        C371   1.281       .  A
O357       Zr362   2.388       .  S
O357       Zr364   2.369       .  S
O358       Zr363   2.403       .  S
O358       Zr364   2.360       .  S
O358        H393   0.965       .  S
O359       Zr362   2.406       .  S
O359       Zr379   2.395       .  S
O359        H396   0.966       .  S
O360       Zr363   2.406       .  S
O360       Zr379   2.393       .  S
Zr361       O386   2.447       .  S
Zr361       O380   2.425       .  S
Zr361       O388   2.363       .  S
Zr361       O376   2.376       .  S
Zr361       O367   2.389       .  S
Zr361       O368   2.398       .  S
Zr361       O369   2.382       .  S
Zr361       O370   2.399       .  S
Zr362       O381   2.434       .  S
Zr362       O374   2.435       .  S
Zr362       O375   2.509       .  S
Zr362       O368   2.411       .  S
Zr362       O369   2.381       .  S
Zr363       O365   2.433       .  S
Zr363       O387   2.436       .  S
Zr363       O389   2.511       .  S
Zr363       O367   2.414       .  S
Zr363       O370   2.408       .  S
Zr364       O390   2.436       .  S
Zr364       O391   2.436       .  S
Zr364       O366   2.437       .  S
Zr364       O367   2.386       .  S
Zr364       O368   2.386       .  S
O365        H402   0.990       .  S
O366        H397   0.990       .  S
O366        H411   0.990       .  S
O368        H394   0.967       .  S
O369       Zr379   2.350       .  S
O370       Zr379   2.377       .  S
O370        H395   0.964       .  S
C371        C946   1.456       .  S
C372        C854   1.495       .  S
C373        C962   1.483       .  S
O374        H410   0.990       .  S
O375        C377   1.295       .  A
O376        C377   1.264       .  A
C377        C842   1.487       .  S
O378       Zr379   2.437       .  S
O378        H407   0.990       .  S
Zr379       O382   2.435       .  S
Zr379       O383   2.437       .  S
Zr379       O384   2.415       .  S
O380        C385   1.283       .  A
O381        H398   0.990       .  S
O381        H413   0.990       .  S
O382        H399   0.990       .  S
O383        H403   0.990       .  S
O383        H412   0.990       .  S
O384        C385   1.280       .  A
C385        C845   1.462       .  S
O386        H405   0.990       .  S
O386        H409   0.987       .  S
O387        H401   0.990       .  S
O387        H408   0.990       .  S
O388        C392   1.264       .  A
O389        C392   1.292       .  A
O390        H400   0.990       .  S
O391        H404   0.990       .  S
C392        C849   1.489       .  S
Zr415       O416   2.438       .  S
Zr415       O417   2.420       .  S
Zr415       O418   2.378       .  S
Zr415       O421   2.365       .  S
Zr415       O423   2.372       .  S
Zr415       O424   2.380       .  S
Zr415       O425   2.400       .  S
Zr415       O426   2.394       .  S
O416        H472   0.990       .  S
O416        H480   0.989       .  S
O417        C437   1.282       .  A
O418        C439   1.268       .  A
O419       Zr429   2.500       .  S
O419        C438   1.298       .  A
O420       Zr428   2.500       .  S
O420        C439   1.294       .  A
O421        C438   1.269       .  A
O422       Zr430   2.429       .  S
O422        C437   1.283       .  A
O423       Zr428   2.386       .  S
O423       Zr430   2.370       .  S
O424       Zr429   2.396       .  S
O424       Zr430   2.366       .  S
O424        H459   0.965       .  S
O425       Zr428   2.406       .  S
O425       Zr445   2.395       .  S
O425        H462   0.967       .  S
O426       Zr429   2.401       .  S
O426       Zr445   2.405       .  S
Zr427       O452   2.440       .  S
Zr427       O446   2.419       .  S
Zr427       O454   2.368       .  S
Zr427       O442   2.372       .  S
Zr427       O433   2.394       .  S
Zr427       O434   2.403       .  S
Zr427       O435   2.376       .  S
Zr427       O436   2.385       .  S
Zr428       O447   2.440       .  S
Zr428       O440   2.435       .  S
Zr428       O441   2.489       .  S
Zr428       O434   2.406       .  S
Zr428       O435   2.388       .  S
Zr429       O431   2.435       .  S
Zr429       O453   2.436       .  S
Zr429       O455   2.499       .  S
Zr429       O433   2.402       .  S
Zr429       O436   2.387       .  S
Zr430       O456   2.436       .  S
Zr430       O457   2.435       .  S
Zr430       O432   2.436       .  S
Zr430       O433   2.397       .  S
Zr430       O434   2.403       .  S
O431        H468   0.990       .  S
O432        H463   0.990       .  S
O432        H477   0.990       .  S
O434        H460   0.967       .  S
O435       Zr445   2.357       .  S
O436       Zr445   2.370       .  S
O436        H461   0.965       .  S
C437        C942   1.471       .  S
C438        C953   1.476   1_455  S
C439        C977   1.484       .  S
O440        H476   0.990       .  S
O441        C443   1.296       .  A
O442        C443   1.268       .  A
C443        C833   1.470       .  S
O444       Zr445   2.435       .  S
O444        H473   0.990       .  S
Zr445       O448   2.435       .  S
Zr445       O449   2.436       .  S
Zr445       O450   2.438       .  S
O446        C451   1.282       .  A
O447        H464   0.990       .  S
O447        H479   0.990       .  S
O448        H465   0.990       .  S
O449        H469   0.990       .  S
O449        H478   0.990       .  S
O450        C451   1.285       .  A
C451        C837   1.474       .  S
O452        H471   0.990       .  S
O452        H475   0.990       .  S
O453        H467   0.990       .  S
O453        H474   0.990       .  S
O454        C458   1.266       .  A
O455        C458   1.295       .  A
O456        H466   0.990       .  S
O457        H470   0.989       .  S
C458        C829   1.481       .  S
Zr481       O482   2.442       .  S
Zr481       O483   2.435       .  S
Zr481       O484   2.380       .  S
Zr481       O487   2.386       .  S
Zr481       O489   2.367       .  S
Zr481       O490   2.398       .  S
Zr481       O491   2.403       .  S
Zr481       O492   2.400       .  S
O482        H538   0.990       .  S
O482        H546   0.990       .  S
O483        C503   1.282       .  A
O484        C505   1.271       .  A
O485       Zr495   2.487       .  S
O485        C504   1.292       .  A
O486       Zr494   2.498       .  S
O486        C505   1.297       .  A
O487        C504   1.268       .  A
O488       Zr496   2.413       .  S
O488        C503   1.280       .  A
O489       Zr494   2.378       .  S
O489       Zr496   2.355       .  S
O490       Zr495   2.410       .  S
O490       Zr496   2.367       .  S
O490        H525   0.965       .  S
O491       Zr494   2.414       .  S
O491       Zr511   2.412       .  S
O491        H528   0.965       .  S
O492       Zr495   2.413       .  S
O492       Zr511   2.392       .  S
Zr493       O518   2.439       .  S
Zr493       O512   2.395       .  S
Zr493       O520   2.370       .  S
Zr493       O508   2.367       .  S
Zr493       O499   2.384       .  S
Zr493       O500   2.391       .  S
Zr493       O501   2.375       .  S
Zr493       O502   2.381       .  S
Zr494       O513   2.435       .  S
Zr494       O506   2.435       .  S
Zr494       O507   2.498       .  S
Zr494       O500   2.408       .  S
Zr494       O501   2.379       .  S
Zr495       O497   2.435       .  S
Zr495       O519   2.436       .  S
Zr495       O521   2.516       .  S
Zr495       O499   2.403       .  S
Zr495       O502   2.385       .  S
Zr496       O522   2.434       .  S
Zr496       O523   2.436       .  S
Zr496       O498   2.439       .  S
Zr496       O499   2.399       .  S
Zr496       O500   2.385       .  S
O497        H534   0.990       .  S
O498        H529   0.990       .  S
O498        H543   0.990       .  S
O500        H526   0.965       .  S
O501       Zr511   2.347       .  S
O502       Zr511   2.374       .  S
O502        H527   0.965       .  S
C503        C969   1.460       .  S
C504        C958   1.480       .  S
C505        C985   1.485       .  S
O506        H542   0.990       .  S
O507        C509   1.295       .  A
O508        C509   1.260       .  A
C509        C821   1.487       .  S
O510       Zr511   2.435       .  S
O510        H539   0.990       .  S
Zr511       O514   2.434       .  S
Zr511       O515   2.439       .  S
Zr511       O516   2.444       .  S
O512        C517   1.279       .  A
O513        H530   0.990       .  S
O513        H545   0.990       .  S
O514        H531   0.990       .  S
O515        H535   0.990       .  S
O515        H544   0.989       .  S
O516        C517   1.286       .  A
C517        C825   1.472       .  S
O518        H537   0.990       .  S
O518        H541   0.990       .  S
O519        H533   0.990       .  S
O519        H540   0.990       .  S
O520        C524   1.273       .  A
O521        C524   1.303       .  A
O522        H532   0.990       .  S
O523        H536   0.990       .  S
C524        C818   1.489       .  S
Zr547       O548   2.438       .  S
Zr547       O549   2.403       .  S
Zr547       O550   2.361       .  S
Zr547       O553   2.387       .  S
Zr547       O555   2.371       .  S
Zr547       O556   2.381       .  S
Zr547       O557   2.401       .  S
Zr547       O558   2.392       .  S
O548        H604   0.991       .  S
O548        H612   0.990       .  S
O549        C569   1.277       .  A
O550        C571   1.272       .  A
O551       Zr561   2.513       .  S
O551        C570   1.301       .  A
O552       Zr560   2.518       .  S
O552        C571   1.302       .  A
O553        C570   1.273       .  A
O554       Zr562   2.457       .  S
O554        C569   1.291       .  A
O555       Zr560   2.385       .  S
O555       Zr562   2.361       .  S
O556       Zr561   2.396       .  S
O556       Zr562   2.352       .  S
O556        H591   0.963       .  S
O557       Zr560   2.411       .  S
O557       Zr577   2.404       .  S
O557        H594   0.967       .  S
O558       Zr561   2.407       .  S
O558       Zr577   2.414       .  S
Zr559       O584   2.436       .  S
Zr559       O578   2.403       .  S
Zr559       O586   2.358       .  S
Zr559       O574   2.360       .  S
Zr559       O565   2.386       .  S
Zr559       O566   2.394       .  S
Zr559       O567   2.373       .  S
Zr559       O568   2.379       .  S
Zr560       O579   2.436       .  S
Zr560       O572   2.435       .  S
Zr560       O573   2.534       .  S
Zr560       O566   2.401       .  S
Zr560       O567   2.375       .  S
Zr561       O563   2.434       .  S
Zr561       O585   2.437       .  S
Zr561       O587   2.525       .  S
Zr561       O565   2.410       .  S
Zr561       O568   2.386       .  S
Zr562       O588   2.435       .  S
Zr562       O589   2.439       .  S
Zr562       O564   2.438       .  S
Zr562       O565   2.412       .  S
Zr562       O566   2.401       .  S
O563        H600   0.990       .  S
O564        H595   0.990       .  S
O564        H609   0.989       .  S
O566        H592   0.966       .  S
O567       Zr577   2.353       .  S
O568       Zr577   2.369       .  S
O568        H593   0.965       .  S
C569        C950   1.480       .  S
C570        C966   1.488       .  S
C571        C994   1.490       .  S
O572        H608   0.990       .  S
O573        C575   1.305       .  A
O574        C575   1.268       .  A
C575        C809   1.488       .  S
O576       Zr577   2.437       .  S
O576        H605   0.990       .  S
Zr577       O580   2.437       .  S
Zr577       O581   2.436       .  S
Zr577       O582   2.463       .  S
O578        C583   1.277       .  A
O579        H596   0.990       .  S
O579        H611   0.990       .  S
O580        H597   0.990       .  S
O581        H601   0.990       .  S
O581        H610   0.990       .  S
O582        C583   1.292       .  A
C583        C813   1.480       .  S
O584        H603   0.990       .  S
O584        H607   0.990       .  S
O585        H599   0.990       .  S
O585        H606   0.990       .  S
O586        C590   1.272       .  A
O587        C590   1.303       .  A
O588        H598   0.991       .  S
O589        H602   0.990       .  S
C590        C805   1.490       .  S
N613        C617   1.367       .  A
N613        C614   1.366       .  A
N613        C762   1.458       .  S
C614        C615   1.374       .  A
C614        C814   1.473       .  S
C615        C616   1.358       .  A
C615        H618   1.082       .  S
C616        C617   1.388       .  A
C616        H619   1.082       .  S
C617        C834   1.479       .  S
N620        C624   1.356       .  A
N620        C621   1.345       .  A
N620        C764   1.430       .  S
C621        C622   1.379       .  A
C621        C846   1.465       .  S
C622        C623   1.372       .  A
C622        H625   1.082       .  S
C623        C624   1.390       .  A
C623        H626   1.082       .  S
C624        C838   1.483       .  S
N627        C631   1.352       .  A
N627        C628   1.363       .  A
N627        C763   1.465       .  S
C628        C629   1.392       .  A
C628        C822   1.508       .  S
C629        C630   1.365       .  A
C629        H632   1.067       .  S
C630        C631   1.375       .  A
C630        H633   1.083       .  S
C631        C850   1.491       .  S
N634        C638   1.376       .  A
N634        C635   1.353       .  A
N634        C765   1.460       .  S
C635        C636   1.377       .  A
C635        C826   1.467       .  S
C636        C637   1.360       .  A
C636        H639   1.083       .  S
C637        C638   1.387       .  A
C637        H640   1.083       .  S
C638        C810   1.497       .  S
N641        C645   1.383       .  A
N641        C642   1.370       .  A
N641        C793   1.489       .  S
C642        C643   1.384       .  A
C642        C878   1.502       .  S
C643        C644   1.361       .  A
C643        H646   1.083       .  S
C644        C645   1.381       .  A
C644        H647   1.082       .  S
C645        C902   1.506       .  S
N648        C652   1.375       .  A
N648        C649   1.366       .  A
N648        C800   1.462       .  S
C649        C650   1.379       .  A
C649        C874   1.477       .  S
C650        C651   1.355       .  A
C650        H653   1.081       .  S
C651        C652   1.383       .  A
C651        H654   1.082       .  S
C652        C866   1.496       .  S
N655        C659   1.359       .  A
N655        C656   1.368       .  A
N655        C794   1.465       .  S
C656        C657   1.382       .  A
C656        C862   1.482       .  S
C657        C658   1.362       .  A
C657        H660   1.082       .  S
C658        C659   1.388       .  A
C658        H661   1.083       .  S
C659        C889   1.486       .  S
N662        C666   1.376       .  A
N662        C663   1.368       .  A
N662        C799   1.462       .  S
C663        C664   1.384       .  A
C663        C906   1.487       .  S
C664        C665   1.355       .  A
C664        H667   1.083       .  S
C665        C666   1.384       .  A
C665        H668   1.082       .  S
C666        C886   1.494       .  S
N669        C673   1.376       .  A
N669        C670   1.360       .  A
N669        C797   1.454       .  S
C670        C671   1.380       .  A
C670        C858   1.481       .  S
C671        C672   1.365       .  A
C671        H674   1.083       .  S
C672        C673   1.387       .  A
C672        H675   1.081       .  S
C673        C806   1.496       .  S
N676        C680   1.373       .  A
N676        C677   1.380       .  A
N676        C796   1.480       .  S
C677        C678   1.386       .  A
C677        C870   1.507       .  S
C678        C679   1.358       .  A
C678        H681   1.081       .  S
C679        C680   1.381       .  A
C679        H682   1.083       .  S
C680        C817   1.493       .  S
N683        C687   1.370       .  A
N683        C684   1.362       .  A
N683        C798   1.450       .  S
C684        C685   1.379       .  A
C684        C882   1.478       .  S
C685        C686   1.364       .  A
C685        H688   1.083       .  S
C686        C687   1.386       .  A
C686        H689   1.080       .  S
C687        C830   1.486       .  S
N690        C694   1.371       .  A
N690        C691   1.380       .  A
N690        C795   1.497       .  S
C691        C692   1.387       .  A
C691        C898   1.524       .  S
C692        C693   1.362       .  A
C692        H695   1.083       .  S
C693        C694   1.385       .  A
C693        H696   1.083       .  S
C694        C841   1.495       .  S
O697       Zr733   2.497   1_556  S
O697        C708   1.305       .  A
O698       Zr732   2.453   1_565  S
O698        C709   1.294       .  A
O699       Zr705   2.504       .  S
O699        C710   1.301       .  A
O700       Zr705   2.428   1_554  S
O700        C711   1.293       .  A
O701       Zr735   2.547       .  S
O701        C711   1.314       .  A
O702       Zr734   2.451   1_565  S
O702        C710   1.296       .  A
O703       Zr705   2.502   1_455  S
O703        C709   1.303       .  A
O704       Zr705   2.437       .  S
O704        C708   1.290       .  A
Zr705       O706   2.362   1_556  S
Zr705       O707   2.360       .  S
Zr705       O715   2.389   1_556  S
Zr705       O713   2.334       .  S
O706       Zr732   2.360   1_664  S
O706       Zr735   2.373       .  S
O707       Zr733   2.338   1_556  S
O707       Zr734   2.319   1_565  S
H712        O713   0.967   1_455  S
O713       Zr732   2.349   1_665  S
O713       Zr734   2.349   1_565  S
H714        O715   0.965       .  S
O715       Zr733   2.356       .  S
O715       Zr735   2.375       .  S
O716       Zr732   2.484       .  S
O716        C739   1.302       .  A
O717       Zr733   2.450   1_545  S
O717        C740   1.296       .  A
O718       Zr734   2.414       .  S
O718        C741   1.287   1_655  A
O719       Zr735   2.521   1_445  S
O719        C742   1.307       .  A
O720       Zr735   2.516   1_545  S
O720        C743   1.306   1_545  A
O721       Zr734   2.472       .  S
O721        C744   1.300       .  A
O722       Zr736   2.569       .  S
O722        C745   1.318       .  A
O723       Zr736   2.555   1_554  S
O723        C746   1.319       .  A
O724       Zr734   2.416       .  S
O724        C745   1.291       .  A
O725       Zr735   2.501   1_545  S
O725        C746   1.304       .  A
O726       Zr732   2.460       .  S
O726        C741   1.296       .  A
O727       Zr733   2.479   1_556  S
O727        C744   1.295   1_565  A
O728       Zr733   2.434       .  S
O728        C743   1.292       .  A
O729       Zr732   2.404   1_554  S
O729        C742   1.288       .  A
O730       Zr736   2.580   1_455  S
O730        C739   1.319       .  A
O731       Zr736   2.572   1_554  S
O731        C740   1.320       .  A
Zr732       O738   2.340   1_455  S
Zr732       O750   2.355   1_456  S
Zr733       O737   2.373   1_565  S
Zr733       O748   2.360   1_564  S
Zr734       O738   2.366       .  S
Zr734       O748   2.345       .  S
Zr735       O737   2.371   1_565  S
Zr735       O750   2.381   1_565  S
Zr736       O737   2.387   1_556  S
Zr736       O738   2.370       .  S
Zr736       O750   2.371   1_556  S
Zr736       O748   2.393       .  S
H747        O748   0.966       .  S
H749        O750   0.965   1_455  S
O751       Zr787   2.510       .  S
O751        C762   1.303       .  A
O752       Zr786   2.566       .  S
O752        C763   1.321       .  A
O753       Zr759   2.417       .  S
O753        C764   1.286       .  A
O754       Zr759   2.479       .  S
O754        C765   1.300       .  A
O755       Zr789   2.481       .  S
O755        C765   1.298       .  A
O756       Zr788   2.460       .  S
O756        C764   1.295       .  A
O757       Zr759   2.436       .  S
O757        C763   1.290       .  A
O758       Zr759   2.432       .  S
O758        C762   1.292       .  A
Zr759       O760   2.343       .  S
Zr759       O761   2.356       .  S
Zr759       O769   2.333       .  S
Zr759       O767   2.376       .  S
O760       Zr786   2.394       .  S
O760       Zr789   2.365       .  S
O761       Zr787   2.338       .  S
O761       Zr788   2.346       .  S
H766        O767   0.964       .  S
O767       Zr786   2.371       .  S
O767       Zr788   2.333       .  S
H768        O769   0.965       .  S
O769       Zr787   2.363       .  S
O769       Zr789   2.337       .  S
O770       Zr786   2.567       .  S
O770        C793   1.319       .  A
O771       Zr787   2.426       .  S
O771        C794   1.292       .  A
O772       Zr788   2.463       .  S
O772        C795   1.298       .  A
O773       Zr789   2.455       .  S
O773        C796   1.298       .  A
O774       Zr789   2.510       .  S
O774        C797   1.306       .  A
O775       Zr788   2.434       .  S
O775        C798   1.290       .  A
O776       Zr790   2.548       .  S
O776        C799   1.312       .  A
O777       Zr790   2.533       .  S
O777        C800   1.309       .  A
O778       Zr788   2.406       .  S
O778        C799   1.288       .  A
O779       Zr789   2.437       .  S
O779        C800   1.294       .  A
O780       Zr786   2.588       .  S
O780        C795   1.321       .  A
O781       Zr787   2.506       .  S
O781        C798   1.304       .  A
O782       Zr787   2.436       .  S
O782        C797   1.291       .  A
O783       Zr786   2.574       .  S
O783        C796   1.320       .  A
O784       Zr790   2.488       .  S
O784        C793   1.304       .  A
O785       Zr790   2.546       .  S
O785        C794   1.314       .  A
Zr786       O792   2.367       .  S
Zr786       O804   2.391       .  S
Zr787       O791   2.380       .  S
Zr787       O802   2.362       .  S
Zr788       O792   2.349       .  S
Zr788       O802   2.356       .  S
Zr789       O791   2.348       .  S
Zr789       O804   2.383       .  S
Zr790       O791   2.366       .  S
Zr790       O792   2.378       .  S
Zr790       O804   2.379       .  S
Zr790       O802   2.365       .  S
H801        O802   0.964       .  S
H803        O804   0.965       .  S
C805        C806   1.371       .  D
C805        H807   1.085       .  S
C806        H808   1.087       .  S
C809        C810   1.376       .  D
C809        H811   1.085       .  S
C810        H812   1.085       .  S
C813        C814   1.336       .  D
C813        H815   1.087       .  S
C814        H816   1.088       .  S
C817        C818   1.371       .  D
C817        H819   1.086       .  S
C818        H820   1.085       .  S
C821        C822   1.370       .  D
C821        H823   1.087       .  S
C822        H824   1.087       .  S
C825        C826   1.345       .  D
C825        H827   1.088       .  S
C826        H828   1.087       .  S
C829        C830   1.365       .  D
C829        H831   1.083       .  S
C830        H832   1.086       .  S
C833        C834   1.362       .  D
C833        H835   1.087       .  S
C834        H836   1.086       .  S
C837        C838   1.347       .  D
C837        H839   1.087       .  S
C838        H840   1.086       .  S
C841        C842   1.370       .  D
C841        H843   1.079       .  S
C842        H844   1.085       .  S
C845        C846   1.337       .  D
C845        H847   1.089       .  S
C846        H848   1.084       .  S
C849        C850   1.369       .  D
C849        H851   1.085       .  S
C850        H852   1.081       .  S
C853        C854   1.376       .  D
C853        H855   1.084       .  S
C854        H856   1.085       .  S
C857        C858   1.348       .  D
C857        H859   1.088       .  S
C858        H860   1.084       .  S
C861        C862   1.367       .  D
C861        H863   1.085       .  S
C862        H864   1.084       .  S
C865        C866   1.372       .  D
C865        H867   1.084       .  S
C866        H868   1.085       .  S
C869        C870   1.379       .  D
C869        H871   1.083       .  S
C870        H872   1.085       .  S
C873        C874   1.348       .  D
C873        H875   1.088       .  S
C874        H876   1.086       .  S
C877        C878   1.375       .  D
C877        H879   1.086       .  S
C878        H880   1.085       .  S
C881        C882   1.347       .  D
C881        H883   1.088       .  S
C882        H884   1.085       .  S
C885        C886   1.373       .  D
C885        H887   1.084       .  S
C886        H888   1.085       .  S
C889        C890   1.362       .  D
C889        H891   1.085       .  S
C890        H892   1.086       .  S
C893        C894   1.362       .  D
C893        H895   1.086       .  S
C894        H896   1.084       .  S
C897        C898   1.387       .  D
C897        H899   1.085       .  S
C898        H900   1.083       .  S
C901        C902   1.388       .  D
C901        H903   1.083       .  S
C902        H904   1.086       .  S
C905        C906   1.351       .  D
C905        H907   1.087       .  S
C906        H908   1.086       .  S
C909        C910   1.385       .  D
C909        H911   1.085       .  S
C910        H912   1.085       .  S
C913        C914   1.346       .  D
C913        H915   1.086       .  S
C914        H916   1.088       .  S
C917        C918   1.378       .  D
C917        H919   1.086       .  S
C918        H920   1.086       .  S
C921        C922   1.397       .  D
C921        H923   1.087   1_455  S
C922        H924   1.087       .  S
C925        C926   1.369       .  D
C925        H927   1.085       .  S
C926        H928   1.086       .  S
C929        C930   1.346       .  D
C929        H931   1.086       .  S
C930        H932   1.088       .  S
C933        C934   1.362       .  D
C933        H935   1.085       .  S
C934        H936   1.087   1_455  S
C937        C938   1.372       .  D
C937        H939   1.086       .  S
C938        H940   1.084       .  S
C941        C942   1.344       .  D
C941        H943   1.087       .  S
C942        H944   1.087       .  S
C945        C946   1.336       .  D
C945        H947   1.085       .  S
C946        H948   1.089       .  S
C949        C950   1.335       .  D
C949        H951   1.088       .  S
C950        H952   1.087       .  S
C953        C954   1.366       .  D
C953        H955   1.087       .  S
C954        H956   1.086   1_655  S
C957        C958   1.365       .  D
C957        H959   1.084       .  S
C958        H960   1.087       .  S
C961        C962   1.370   1_655  D
C961        H963   1.085   1_655  S
C962        H964   1.084   1_455  S
C965        C966   1.372       .  D
C965        H967   1.085       .  S
C966        H968   1.087       .  S
C969        C970   1.340       .  D
C969        H971   1.083       .  S
C970        H972   1.085       .  S
C973        C974   1.340       .  D
C973        H975   1.087       .  S
C974        H976   1.086       .  S
C977        C978   1.365       .  D
C977        H979   1.085       .  S
C978        H980   1.086       .  S
C981        C982   1.375       .  D
C981        H983   1.083       .  S
C982        H984   1.085       .  S
C985        C986   1.368       .  D
C985        H987   1.085       .  S
C986        H988   1.086       .  S
C989        C990   1.341       .  D
C989        H991   1.088       .  S
C990        H992   1.087       .  S
C993        C994   1.368       .  D
C993        H995   1.087       .  S
C994        H996   1.086       .  S
