geometry optimzed in LAMMPS
_audit_creation_date              2020-11-30 
_audit_creation_method            'lammps2cif' 
_symmetry_space_group_name_H-M    'P1' 
_symmetry_Int_Tables_number       1 
_symmetry_cell_setting            triclinic 
loop_ 
_symmetry_equiv_pos_as_xyz 
  x,y,z 
_cell_length_a                    44.506213649273796 
_cell_length_b                    44.85080425693623 
_cell_length_c                    31.80526862574737 
_cell_angle_alpha                 89.73861533369328 
_cell_angle_beta                  90.38595414630296 
_cell_angle_gamma                 89.95046845134608 
loop_ 
_atom_site_label 
_atom_site_type_symbol 
_atom_site_fract_x 
_atom_site_fract_y 
_atom_site_fract_z 
_atom_site_charge 
In1        In  0.83975124  0.24905459  0.00729294     1.36870
C2          C  0.87739424  0.20694749  0.48196237     0.77630
O3          O  0.80700128  0.22332501  0.46971226    -0.60810
O4          O  0.80721108  0.27079977  0.46385634    -0.51720
C5          C  0.80551108  0.24742418  0.07670604     0.70300
O6          O  0.81339315  0.22454678  0.05699280    -0.46580
C7          C  0.87473831  0.29445616  0.98582741     0.75000
O8          O  0.87914925  0.21773842  0.01863625    -0.58440
O9          O  0.84769681  0.29233980  0.47451017    -0.48530
O10         O  0.85634147  0.21708159  0.45960930    -0.54870
C11         C  0.79593054  0.24629498  0.45270772     0.85180
O12         O  0.81900432  0.27072450  0.06513099    -0.56770
O13         O  0.88320531  0.27479258  0.01201891    -0.60060
In14       In  0.00113939  0.41364336  0.38723287     1.36870
C15         C  0.04436703  0.37809760  0.41705401     0.77630
O16         O  0.02765957  0.44661278  0.42319802    -0.60810
O17         O  0.98048952  0.44452136  0.43206043    -0.51720
C18         C  0.99994550  0.44861888  0.31804054     0.70300
O19         O  0.02390326  0.43931793  0.33488620    -0.46580
C20         C  0.95726343  0.37565386  0.40443513     0.75000
O21         O  0.03753054  0.37903780  0.37818966    -0.58440
O22         O  0.95782002  0.40207623  0.41765794    -0.48530
O23         O  0.02942212  0.39567025  0.43920223    -0.54870
C24         C  0.00523402  0.45583381  0.44316253     0.85180
O25         O  0.97678053  0.43666795  0.33308556    -0.56770
O26         O  0.97732739  0.36969772  0.37770862    -0.60060
In27       In  0.00138159  0.08364065  0.38557565     1.36870
C28         C  0.95912400  0.12354873  0.40506853     0.77630
O29         O  0.97294183  0.04852466  0.41491177    -0.60810
O30         O  0.01632928  0.05801584  0.44074118    -0.51720
C31         C  0.00584278  0.04879879  0.31657525     0.70300
O32         O  0.98412072  0.06616856  0.32294440    -0.46580
C33         C  0.04738231  0.11628628  0.41251361     0.75000
O34         O  0.97878301  0.12871957  0.37752854    -0.58440
O35         O  0.03936933  0.09227581  0.42946096    -0.48530
O36         O  0.95934408  0.09721582  0.41867241    -0.54870
C37         C  0.99245448  0.04308222  0.44288725     0.85180
O38         O  0.02692578  0.05239549  0.34260184    -0.56770
O39         O  0.03370641  0.12220962  0.37836535    -0.60060
In40       In  0.16803021  0.24615728  0.00345249     1.36870
C41         C  0.13098283  0.29066092  0.47902858     0.77630
O42         O  0.20085595  0.27831390  0.47603487    -0.60810
O43         O  0.19895539  0.23368699  0.45281024    -0.52040
C44         C  0.20492568  0.23961076  0.07051607     0.70300
O45         O  0.18364055  0.25829394  0.07008032    -0.46580
C46         C  0.13281680  0.20035922  0.98305021     0.75000
O47         O  0.13517673  0.28432499  0.01755077    -0.58440
O48         O  0.15719700  0.20613792  0.46583309    -0.48530
O49         O  0.14520804  0.27398733  0.45479125    -0.54870
C50         C  0.21005928  0.25939981  0.44981390     0.85180
O51         O  0.20492139  0.22255992  0.03933936    -0.56770
O52         O  0.12753976  0.21592496  0.01529340    -0.60060
In53       In  0.00221687  0.58352549  0.13044764     1.36870
C54         C  0.04556937  0.61998663  0.10333935     0.77630
O55         O  0.02794649  0.54773180  0.09837558    -0.60810
O56         O  0.98131364  0.55365440  0.08499705    -0.51720
C57         C  0.00050469  0.54968088  0.20085704     0.70300
O58         O  0.02389566  0.56267687  0.18840622    -0.46580
C59         C  0.95696899  0.61884328  0.10664263     0.75000
O60         O  0.03341392  0.62289711  0.13905652    -0.58440
O61         O  0.96111590  0.59298153  0.09308217    -0.48530
O62         O  0.03648897  0.59758702  0.08349766    -0.54870
C63         C  0.00502199  0.53931488  0.07805103     0.85180
O64         O  0.97735311  0.55753538  0.18073490    -0.56770
O65         O  0.97439232  0.62576867  0.13675894    -0.60060
In66       In  0.83678756  0.74905743  0.01565261     1.36870
C67         C  0.87364251  0.79271523  0.04104839     0.77630
O68         O  0.79891995  0.77576224  0.04111279    -0.60810
O69         O  0.81018419  0.73406913  0.06996803    -0.51720
C70         C  0.80178695  0.74372721  0.44663730     0.70300
O71         O  0.81266665  0.76823890  0.45851130    -0.46580
C72         C  0.87348632  0.70451038  0.03454128     0.75000
O73         O  0.87349787  0.78338301  0.00342999    -0.58440
O74         O  0.84764756  0.70710509  0.04995370    -0.48530
O75         O  0.85448436  0.78027427  0.06374114    -0.54870
C76         C  0.79398173  0.75710639  0.06997098     0.85180
O77         O  0.81150327  0.72155278  0.46703597    -0.56770
O78         O  0.87956116  0.72283629  0.50540473    -0.60060
In79       In  0.16885986  0.75128016  0.01470451     1.36870
C80         C  0.13070665  0.70856452  0.04079215     0.77630
O81         O  0.20082105  0.72010159  0.04644511    -0.60810
O82         O  0.19669159  0.76489245  0.06858861    -0.51720
C83         C  0.20780518  0.75571844  0.44984494     0.70300
O84         O  0.18653989  0.73701292  0.45006873    -0.46580
C85         C  0.13200228  0.79713450  0.02806379     0.75000
O86         O  0.13491234  0.71380159  0.00198522    -0.58440
O87         O  0.15765700  0.79479870  0.04442992    -0.48530
O88         O  0.14648368  0.72448932  0.06441478    -0.54870
C89         C  0.20808903  0.73937565  0.07350548     0.85180
O90         O  0.20691793  0.77357760  0.48006952    -0.56770
O91         O  0.12660989  0.77797508  0.50001575    -0.60060
In92       In  0.00523004  0.91532737  0.12779847     1.36870
C93         C  0.96194705  0.87846604  0.10166300     0.77630
O94         O  0.97677104  0.95185383  0.10196053    -0.60810
O95         O  0.01968207  0.94333247  0.07460337    -0.51720
C96         C  0.00911944  0.94951963  0.19721476     0.70300
O97         O  0.98539563  0.93622970  0.18620597    -0.46580
C98         C  0.05094307  0.88025318  0.10780980     0.75000
O99         O  0.97162706  0.87801883  0.13930832    -0.58440
O100        O  0.04935528  0.90725453  0.09714022    -0.48530
O101        O  0.97372387  0.89826525  0.07925728    -0.54870
C102        C  0.99582182  0.95841456  0.07434676     0.85180
O103        O  0.03165282  0.94179370  0.17619724    -0.56770
O104        O  0.03076060  0.87190614  0.13313278    -0.60060
In105      In  0.50437682  0.91250263  0.13847416     1.36870
C106        C  0.54730132  0.87445747  0.16309006     0.77630
O107        O  0.53141884  0.94820150  0.16870011    -0.60810
O108        O  0.48629582  0.94054696  0.18901319    -0.51720
C109        C  0.49966530  0.94814336  0.06953537     0.70300
O110        O  0.52352261  0.93459392  0.07974129    -0.46580
C111        C  0.46001564  0.87568398  0.15930490     0.75000
O112        O  0.53484469  0.87253922  0.12727171    -0.58440
O113        O  0.46545812  0.89966202  0.17819434    -0.48530
O114        O  0.54009965  0.89723452  0.18337757    -0.54870
C115        C  0.51051264  0.95472585  0.19364450     0.85180
O116        O  0.47766706  0.94041699  0.09166855    -0.56770
O117        O  0.47524311  0.87176343  0.12628420    -0.60060
In118      In  0.66791274  0.74305784  0.25593053     1.36870
C119        C  0.63285970  0.78770064  0.22856724     0.77630
O120        O  0.70566998  0.77128025  0.23283070    -0.60810
O121        O  0.69341792  0.73191970  0.19924827    -0.51720
C122        C  0.70302476  0.73823756  0.32518518     0.70300
O123        O  0.68281715  0.75786674  0.32123371    -0.46580
C124        C  0.63084003  0.69801626  0.23963664     0.75000
O125        O  0.63479832  0.78086565  0.26727759    -0.58440
O126        O  0.65829265  0.69748848  0.23063552    -0.48530
O127        O  0.64905819  0.77198696  0.20541405    -0.54870
C128        C  0.71013460  0.75450337  0.20178454     0.85180
O129        O  0.70263943  0.71933496  0.29605372    -0.56770
O130        O  0.62309368  0.71976163  0.26219329    -0.60060
In131      In  0.50200209  0.58205964  0.13533523     1.36870
C132        C  0.45828275  0.61878128  0.16116056     0.77630
O133        O  0.47888964  0.54709244  0.17293702    -0.60810
O134        O  0.52526658  0.55507054  0.18317722    -0.51720
C135        C  0.50374290  0.54630224  0.06685548     0.70300
O136        O  0.48005361  0.55218035  0.08654440    -0.46580
C137        C  0.54676671  0.61898296  0.15541349     0.75000
O138        O  0.46916849  0.62045481  0.12444369    -0.58440
O139        O  0.54492607  0.59249337  0.16845972    -0.48530
O140        O  0.46854495  0.59739685  0.18225799    -0.54870
C141        C  0.50225258  0.54077764  0.19388774     0.85180
O142        O  0.52582282  0.56175912  0.07867539    -0.56770
O143        O  0.52727547  0.62559542  0.12770902    -0.60060
In144      In  0.33854335  0.75085604  0.25433097     1.36870
C145        C  0.37728736  0.70928874  0.22749254     0.77630
O146        O  0.30533891  0.71885142  0.22724521    -0.60810
O147        O  0.30983319  0.76243073  0.20032477    -0.51720
C148        C  0.30167749  0.75574033  0.32160781     0.70300
O149        O  0.32330065  0.73740642  0.32098960    -0.46580
C150        C  0.37332520  0.79761884  0.23815573     0.75000
O151        O  0.37199524  0.71295290  0.26631944    -0.58440
O152        O  0.34696478  0.79509567  0.22443194    -0.48530
O153        O  0.36234754  0.72622440  0.20380219    -0.54870
C154        C  0.29711193  0.73740284  0.19951316     0.85180
O155        O  0.30137356  0.77317222  0.29059760    -0.56770
O156        O  0.38061781  0.77812573  0.26524774    -0.60060
In157      In  0.50484774  0.41053330  0.38097931     1.36870
C158        C  0.46157388  0.37359966  0.35512909     0.77630
O159        O  0.47696884  0.44484495  0.34781267    -0.60810
O160        O  0.52412357  0.44283207  0.33766004    -0.51720
C161        C  0.50765620  0.44600155  0.44951886     0.70300
O162        O  0.48530398  0.42966386  0.44125914    -0.46580
C163        C  0.54981313  0.37449619  0.36068926     0.75000
O164        O  0.46933194  0.37511380  0.39348553    -0.58440
O165        O  0.54145236  0.39638609  0.33896019    -0.48530
O166        O  0.47514025  0.39141555  0.33138547    -0.54870
C167        C  0.49940323  0.45496089  0.32833268     0.85180
O168        O  0.52961334  0.44142223  0.42560163    -0.56770
O169        O  0.53681170  0.37196404  0.39587101    -0.60060
In170      In  0.66964361  0.24644480  0.26245532     1.36870
C171        C  0.63300151  0.20159874  0.28215148     0.77630
O172        O  0.70263401  0.21892371  0.29817261    -0.60810
O173        O  0.70167557  0.26630491  0.30620068    -0.51720
C174        C  0.70706205  0.25134762  0.19678837     0.70300
O175        O  0.69060790  0.22875808  0.20244356    -0.46580
C176        C  0.63225329  0.29030862  0.28529648     0.75000
O177        O  0.63037479  0.21612373  0.24804230    -0.58440
O178        O  0.65298566  0.27991204  0.30802119    -0.48530
O179        O  0.65559396  0.20861241  0.30382333    -0.54870
C180        C  0.71311708  0.24157495  0.31651254     0.85180
O181        O  0.70100933  0.27258037  0.22088689    -0.56770
O182        O  0.63125823  0.27896646  0.24893649    -0.60060
In183      In  0.50285428  0.08299889  0.37867845     1.36870
C184        C  0.54766656  0.11830327  0.35321778     0.77630
O185        O  0.52780548  0.04455700  0.35157866    -0.60810
O186        O  0.48918672  0.06137644  0.31938737    -0.51720
C187        C  0.50088321  0.04651509  0.44669630     0.70300
O188        O  0.52266719  0.06363208  0.43905397    -0.46580
C189        C  0.45588998  0.11883270  0.36614260     0.75000
O190        O  0.54124274  0.11559781  0.39182208    -0.58440
O191        O  0.45557607  0.09160590  0.35697222    -0.48530
O192        O  0.53161786  0.10305161  0.32896268    -0.54870
C193        C  0.51055422  0.04305555  0.32010234     0.85180
O194        O  0.47875431  0.05091261  0.42255132    -0.56770
O195        O  0.47852472  0.12695941  0.38742522    -0.60060
In196      In  0.33617830  0.24634041  0.26733319     1.36870
C197        C  0.37606406  0.28954490  0.28497525     0.77630
O198        O  0.30104095  0.27735468  0.29150160    -0.60810
O199        O  0.31485923  0.23991216  0.32869043    -0.51720
C200        C  0.29771704  0.23939578  0.20145386     0.70300
O201        O  0.31915567  0.25787281  0.20079587    -0.46580
C202        C  0.36853063  0.19841076  0.28863641     0.75000
O203        O  0.37435107  0.27809325  0.24867290    -0.58440
O204        O  0.34215278  0.20275195  0.30076248    -0.48530
O205        O  0.35716740  0.27936318  0.31022271    -0.54870
C206        C  0.29856527  0.26274898  0.32539590     0.85180
O207        O  0.29798921  0.22305896  0.23362568    -0.56770
O208        O  0.37687785  0.21669946  0.26066768    -0.60060
C209        C  0.41896035  0.17591116  0.29429739    -0.05730
C210        C  0.38909985  0.17577062  0.30804982     0.00200
C211        C  0.38118903  0.15676558  0.34249185    -0.08370
C212        C  0.40358241  0.13840440  0.36092035    -0.05750
C213        C  0.43351547  0.13979952  0.34798748     0.00180
C214        C  0.44131945  0.15880431  0.31418419    -0.08280
C215        C  0.47350746  0.16159681  0.29995210     0.62100
H216        H  0.42508283  0.19055006  0.26860480     0.12790
H217        H  0.39810002  0.12323995  0.38631509     0.12800
C218        C  0.34974667  0.15608907  0.36080555     0.62330
F219        F  0.47648464  0.18059068  0.26579077    -0.22840
F220        F  0.48442632  0.13395100  0.28851997    -0.20170
F221        F  0.49029657  0.17292196  0.33289316    -0.19840
F222        F  0.32908819  0.14887033  0.32981924    -0.19900
F223        F  0.34286273  0.18364223  0.37758308    -0.20220
F224        F  0.34715459  0.13519197  0.39275524    -0.22890
C225        C  0.62157276  0.15568271  0.32340458    -0.05730
C226        C  0.61103498  0.17917342  0.29757370     0.00200
C227        C  0.57968038  0.18263562  0.29145218    -0.08370
C228        C  0.56026451  0.16144714  0.30901007    -0.05750
C229        C  0.57050205  0.13894421  0.33613035     0.00180
C230        C  0.60167890  0.13552076  0.34310426    -0.08280
C231        C  0.61367474  0.11007052  0.36986290     0.62100
H232        H  0.64555725  0.15345453  0.32846789     0.12790
H233        H  0.53664351  0.16271367  0.30215946     0.12800
C234        C  0.56644038  0.20999005  0.27011091     0.62330
F235        F  0.64477027  0.10978987  0.37125769    -0.22840
F236        F  0.60404097  0.08320053  0.35338117    -0.20170
F237        F  0.60322588  0.11275260  0.41050658    -0.19840
F238        F  0.57425954  0.21065990  0.22813660    -0.19900
F239        F  0.57718558  0.23514010  0.29017842    -0.20220
F240        F  0.53539224  0.21060877  0.27232591    -0.22890
C241        C  0.56375183  0.34037521  0.30397409    -0.05730
C242        C  0.57119093  0.35271551  0.34316499     0.00200
C243        C  0.59946557  0.34663899  0.36135205    -0.08370
C244        C  0.61867056  0.32644007  0.34095404    -0.05750
C245        C  0.61104139  0.31317471  0.30205783     0.00180
C246        C  0.58333552  0.32111588  0.28247786    -0.08280
C247        C  0.57437106  0.31019176  0.23899537     0.62100
H248        H  0.54229238  0.34636886  0.29002489     0.12790
H249        H  0.64012438  0.32110412  0.35535806     0.12800
C250        C  0.60973477  0.36258715  0.40086096     0.62330
F251        F  0.54678717  0.32145708  0.22620124    -0.22840
F252        F  0.57225866  0.27952503  0.23873286    -0.20170
F253        F  0.59554950  0.31924703  0.21002517    -0.19840
F254        F  0.59110180  0.35526069  0.43391552    -0.19900
F255        F  0.60870676  0.39309037  0.39421947    -0.20220
F256        F  0.63888808  0.35501913  0.41203668    -0.22890
C257        C  0.44708508  0.33639442  0.30152536    -0.05730
C258        C  0.43923466  0.35236241  0.33783633     0.00200
C259        C  0.41006151  0.34929351  0.35439181    -0.08370
C260        C  0.38992674  0.32960442  0.33457367    -0.05750
C261        C  0.39798989  0.31261015  0.29916961     0.00180
C262        C  0.42709448  0.31620679  0.28205743    -0.08280
C263        C  0.43742456  0.29831838  0.24442892     0.62100
H264        H  0.46941824  0.33952173  0.28891898     0.12790
H265        H  0.36753843  0.32710802  0.34710879     0.12800
C266        C  0.39998870  0.36726490  0.39210855     0.62330
F267        F  0.46698274  0.30441257  0.23418065    -0.22840
F268        F  0.41970180  0.30518677  0.20983589    -0.20170
F269        F  0.43528561  0.26815615  0.25322952    -0.19840
F270        F  0.40417169  0.39734615  0.38431240    -0.19900
F271        F  0.41654175  0.35896787  0.42718842    -0.20220
F272        F  0.36990016  0.36279620  0.40094757    -0.22890
C273        C  0.48928050  0.49510654  0.04490348    -0.05730
C274        C  0.50566323  0.52119590  0.03591763     0.00200
C275        C  0.52398098  0.52171036  0.99958523    -0.08370
C276        C  0.52442816  0.49643668  0.47302540    -0.05750
C277        C  0.50755228  0.47052261  0.48161154     0.00180
C278        C  0.49024515  0.46962216  0.01890136    -0.08280
C279        C  0.47371267  0.44158109  0.03221277     0.62100
H280        H  0.47590271  0.49463572  0.07321450     0.12790
H281        H  0.53772573  0.49696926  0.44464924     0.12800
C282        C  0.54229117  0.54907041  0.48813652     0.62330
F283        F  0.46285500  0.44372946  0.07278338    -0.22840
F284        F  0.49302556  0.41740541  0.03096309    -0.20170
F285        F  0.44958987  0.43664370  0.00556807    -0.19840
F286        F  0.56483188  0.55327011  0.01763305    -0.19900
F287        F  0.52388854  0.57394011  0.48695660    -0.20220
F288        F  0.55563466  0.54630441  0.44914651    -0.22890
C289        C  0.52533919  0.49226098  0.28644965    -0.05730
C290        C  0.49797603  0.47848537  0.29610474     0.00200
C291        C  0.47182229  0.48545090  0.27241508    -0.08370
C292        C  0.47440451  0.50612002  0.23942636    -0.05750
C293        C  0.50209053  0.51925173  0.22900501     0.00180
C294        C  0.52823320  0.51209056  0.25283924    -0.08280
C295        C  0.55928806  0.52461283  0.24330429     0.62100
H296        H  0.54494758  0.48688939  0.30532262     0.12790
H297        H  0.45464601  0.51194509  0.22112918     0.12800
C298        C  0.44161247  0.47079804  0.28071462     0.62330
F299        F  0.58132858  0.51267876  0.26932838    -0.22840
F300        F  0.55935480  0.55516364  0.24906227    -0.20170
F301        F  0.56713147  0.51790683  0.20239695    -0.19840
F302        F  0.43200528  0.47779967  0.32073835    -0.19900
F303        F  0.44417900  0.44018921  0.27687671    -0.20220
F304        F  0.41969207  0.48029616  0.25258152    -0.22890
C305        C  0.40287739  0.66010770  0.23295467    -0.05730
C306        C  0.39863681  0.68672631  0.21045717     0.00200
C307        C  0.41431160  0.69089232  0.17197722    -0.08370
C308        C  0.43264007  0.66776075  0.15685548    -0.05750
C309        C  0.43669769  0.64094197  0.17897481     0.00180
C310        C  0.42168667  0.63708040  0.21821668    -0.08280
C311        C  0.42512092  0.60900264  0.24487214     0.62100
H312        H  0.39100181  0.65740105  0.26232120     0.12790
H313        H  0.44441059  0.67072585  0.12746161     0.12800
C314        C  0.41263746  0.71982291  0.14704566     0.62330
F315        F  0.40664304  0.60933176  0.27972692    -0.22840
F316        F  0.45442107  0.60652348  0.25926322    -0.20170
F317        F  0.41761778  0.58420388  0.22133464    -0.19840
F318        F  0.41754591  0.74378736  0.17332454    -0.19900
F319        F  0.38475351  0.72241738  0.12823052    -0.20220
F320        F  0.43399529  0.72103277  0.11562284    -0.22890
C321        C  0.59187311  0.62796687  0.19992854    -0.05730
C322        C  0.56900713  0.64020520  0.17414688     0.00200
C323        C  0.56638175  0.67177593  0.17122356    -0.08370
C324        C  0.58639537  0.68961793  0.19474900    -0.05750
C325        C  0.60904289  0.67719949  0.22026688     0.00180
C326        C  0.61204646  0.64592312  0.22286079    -0.08280
C327        C  0.63584570  0.63165607  0.25082332     0.62100
H328        H  0.59381229  0.60395727  0.20228972     0.12790
H329        H  0.58498211  0.71369825  0.19270240     0.12800
C330        C  0.54262088  0.68686242  0.14395627     0.62330
F331        F  0.63285042  0.60095461  0.25263184    -0.22840
F332        F  0.63339916  0.64259312  0.29126089    -0.20170
F333        F  0.66411793  0.63809146  0.23554607    -0.19840
F334        F  0.51426856  0.67894671  0.15761024    -0.19900
F335        F  0.54617794  0.67840852  0.10251219    -0.20220
F336        F  0.54466631  0.71764762  0.14546661    -0.22890
C337        C  0.52606366  0.98248170  0.02000500    -0.05730
C338        C  0.49857613  0.97255803  0.03667629     0.00200
C339        C  0.47177182  0.98758185  0.02371034    -0.08370
C340        C  0.47377979  0.01181297  0.49511675    -0.05750
C341        C  0.50135531  0.02204824  0.47925293     0.00180
C342        C  0.52803760  0.00676793  0.49162415    -0.08280
C343        C  0.55857990  0.01532056  0.47423253     0.62100
H344        H  0.54641611  0.97118572  0.02991873     0.12790
H345        H  0.45354619  0.02326714  0.48501649     0.12800
C346        C  0.44099375  0.97842257  0.03964453     0.62330
F347        F  0.58106419  0.99618251  0.48791690    -0.22840
F348        F  0.56607621  0.04375337  0.48722980    -0.20170
F349        F  0.55784804  0.01431330  0.43076435    -0.19840
F350        F  0.43925376  0.98349964  0.08242134    -0.19900
F351        F  0.43612075  0.94853829  0.03148417    -0.20220
F352        F  0.41807302  0.99441716  0.02036323    -0.22890
C353        C  0.51651501  0.00665943  0.21425880    -0.05730
C354        C  0.51409220  0.97681746  0.22641623     0.00200
C355        C  0.51389471  0.96859262  0.26933648    -0.08370
C356        C  0.51423032  0.99117691  0.29938126    -0.05750
C357        C  0.51441738  0.02111887  0.28720574     0.00180
C358        C  0.51661475  0.02932622  0.24432365    -0.08280
C359        C  0.51955020  0.06164163  0.23052204     0.62100
H360        H  0.51724249  0.01204733  0.18103180     0.12790
H361        H  0.51317430  0.98569551  0.33256555     0.12800
C362        C  0.51402711  0.93618432  0.28310793     0.62330
F363        F  0.52454601  0.06413356  0.18772717    -0.22840
F364        F  0.54355522  0.07466067  0.25124879    -0.20170
F365        F  0.49353411  0.07708937  0.23961104    -0.19840
F366        F  0.53859524  0.92211957  0.26581055    -0.19900
F367        F  0.48800386  0.92222284  0.26976725    -0.20220
F368        F  0.51595500  0.93321325  0.32639651    -0.22890
C369        C  0.42421331  0.80847428  0.21274105    -0.05730
C370        C  0.39501939  0.81900824  0.21960589     0.00200
C371        C  0.38685349  0.84763688  0.20413998    -0.08370
C372        C  0.40881974  0.86504626  0.18379528    -0.05750
C373        C  0.43792107  0.85422363  0.17630938     0.00180
C374        C  0.44571713  0.82512148  0.19063892    -0.08280
C375        C  0.47589607  0.80996080  0.18443006     0.62100
H376        H  0.43020409  0.78637814  0.22396243     0.12790
H377        H  0.40332254  0.88735322  0.17301454     0.12800
C378        C  0.35532133  0.85999114  0.20926528     0.62330
F379        F  0.48694986  0.80049485  0.22295893    -0.22840
F380        F  0.49728040  0.82789328  0.16625855    -0.20170
F381        F  0.47190664  0.78526967  0.15911150    -0.19840
F382        F  0.34658117  0.85751674  0.25078714    -0.19900
F383        F  0.33550101  0.84437458  0.18398149    -0.20220
F384        F  0.35360920  0.88977552  0.19785680    -0.22890
C385        C  0.58943290  0.82156680  0.23731095    -0.05730
C386        C  0.61233928  0.81112365  0.21122468     0.00200
C387        C  0.61389182  0.82207413  0.16906697    -0.08370
C388        C  0.59168545  0.84216896  0.15463324    -0.05750
C389        C  0.56840371  0.85193195  0.18054114     0.00180
C390        C  0.56692976  0.84108656  0.22268391    -0.08280
C391        C  0.54202358  0.84798060  0.25373423     0.62100
H392        H  0.58827235  0.81335060  0.26938130     0.12790
H393        H  0.59250224  0.85080404  0.12280446     0.12800
C394        C  0.63896130  0.81336014  0.13922210     0.62330
F395        F  0.53192201  0.82168281  0.27161353    -0.22840
F396        F  0.51739984  0.86196293  0.23590596    -0.20170
F397        F  0.55347955  0.86568095  0.28546760    -0.19840
F398        F  0.63622346  0.78364518  0.12844738    -0.19900
F399        F  0.66660242  0.81824398  0.15813921    -0.20220
F400        F  0.63814298  0.82990650  0.10236593    -0.22890
C401        C  0.22455855  0.75369046  0.37528015    -0.05730
C402        C  0.23234610  0.75626292  0.41777220     0.00200
C403        C  0.26338125  0.75815810  0.42889324    -0.08370
C404        C  0.28539369  0.75770830  0.39692348    -0.05750
C405        C  0.27749143  0.75596243  0.35429632     0.00180
C406        C  0.24648419  0.75375443  0.34338159    -0.08280
C407        C  0.23658668  0.75026607  0.29813380     0.62100
H408        H  0.20095259  0.75189932  0.36721340     0.12790
H409        H  0.30903369  0.75900600  0.40496633     0.12800
C410        C  0.27335048  0.75903841  0.47450885     0.62330
F411        F  0.20593648  0.74560239  0.29436127    -0.22840
F412        F  0.25111856  0.72594549  0.28104286    -0.20170
F413        F  0.24358380  0.77584359  0.27585480    -0.19840
F414        F  0.26104610  0.73505037  0.49552280    -0.19900
F415        F  0.26393113  0.78526657  0.49290543    -0.20220
F416        F  0.30428624  0.75735604  0.47877463    -0.22890
C417        C  0.25699036  0.72217855  0.09800417    -0.05730
C418        C  0.22841359  0.73291837  0.10823789     0.00200
C419        C  0.22162452  0.74069504  0.15027324    -0.08370
C420        C  0.24459748  0.73905290  0.18002009    -0.05750
C421        C  0.27372234  0.73124525  0.16894055     0.00180
C422        C  0.28041146  0.72269990  0.12750799    -0.08280
C423        C  0.31241421  0.71671575  0.11406254     0.62100
H424        H  0.26148913  0.71578209  0.06599062     0.12790
H425        H  0.24008638  0.74608074  0.21165180     0.12800
C426        C  0.19129695  0.75112781  0.16634221     0.62330
F427        F  0.31402254  0.70809314  0.07239240    -0.22840
F428        F  0.32473403  0.69430990  0.13872711    -0.20170
F429        F  0.32908674  0.74250249  0.11877663    -0.19840
F430        F  0.18169712  0.73164007  0.19731472    -0.19900
F431        F  0.16924123  0.75263647  0.13588288    -0.20220
F432        F  0.19436896  0.77918212  0.18373898    -0.22890
C433        C  0.12140101  0.84622950  0.05993714    -0.05730
C434        C  0.10998638  0.81930812  0.04392487     0.00200
C435        C  0.07912670  0.81247331  0.04973182    -0.08370
C436        C  0.06111952  0.83257272  0.07238930    -0.05750
C437        C  0.07258171  0.85944146  0.08823725     0.00180
C438        C  0.10311826  0.86674580  0.08136832    -0.08280
C439        C  0.11657258  0.89568606  0.09739926     0.62100
H440        H  0.14501540  0.85105877  0.05556664     0.12790
H441        H  0.03751874  0.82779365  0.07706491     0.12800
C442        C  0.06521053  0.78394465  0.03296196     0.62330
F443        F  0.14747564  0.89634775  0.09277393    -0.22840
F444        F  0.11028303  0.89900100  0.13966122    -0.20170
F445        F  0.10466536  0.91950996  0.07513500    -0.19840
F446        F  0.08000148  0.75945474  0.04960159    -0.19900
F447        F  0.06726306  0.78353426  0.98960996    -0.20220
F448        F  0.03514032  0.78149605  0.04332052    -0.22890
C449        C  0.75484045  0.72472353  0.34907569    -0.05730
C450        C  0.72714028  0.73849334  0.35846629     0.00200
C451        C  0.72426304  0.75332973  0.39760698    -0.08370
C452        C  0.74949450  0.75497138  0.42470858    -0.05750
C453        C  0.77711290  0.74164532  0.41488671     0.00180
C454        C  0.77988321  0.72608528  0.37660579    -0.08280
C455        C  0.80956021  0.71207444  0.36434554     0.62100
H456        H  0.75702809  0.71331958  0.31934649     0.12790
H457        H  0.74780215  0.76665453  0.45424382     0.12800
C458        C  0.69462170  0.76668365  0.41152908     0.62330
F459        F  0.80830096  0.69963881  0.32461193    -0.22840
F460        F  0.81711893  0.68983166  0.39273818    -0.20170
F461        F  0.83182339  0.73358526  0.36446715    -0.19840
F462        F  0.67194573  0.74580214  0.40726379    -0.19900
F463        F  0.68791436  0.79154629  0.38739703    -0.20220
F464        F  0.69553498  0.77536244  0.45322909    -0.22890
C465        C  0.78270543  0.76377315  0.14406051    -0.05730
C466        C  0.77199202  0.76201490  0.10264047     0.00200
C467        C  0.74094537  0.76179026  0.09384481    -0.08370
C468        C  0.72117283  0.76101881  0.12772590    -0.05750
C469        C  0.73189141  0.76101072  0.16922581     0.00180
C470        C  0.76288061  0.76363905  0.17801605    -0.08280
C471        C  0.77486190  0.76463273  0.22277225     0.62100
H472        H  0.80676717  0.76424664  0.14952084     0.12790
H473        H  0.69717787  0.75941612  0.12216882     0.12800
C474        C  0.72902178  0.76111520  0.04910084     0.62330
F475        F  0.80592424  0.76618751  0.22402054    -0.22840
F476        F  0.76614450  0.73925255  0.24428286    -0.20170
F477        F  0.76363680  0.78948011  0.24292028    -0.19840
F478        F  0.74014665  0.73638452  0.02851297    -0.19900
F479        F  0.73796782  0.78668696  0.02825623    -0.20220
F480        F  0.69795040  0.75983561  0.04772768    -0.22890
C481        C  0.91948796  0.84390614  0.11367093    -0.05730
C482        C  0.93881150  0.85755854  0.08488008     0.00200
C483        C  0.93560101  0.85087979  0.04129357    -0.08370
C484        C  0.91404551  0.82967699  0.02879967    -0.05750
C485        C  0.89487976  0.81571748  0.05761359     0.00180
C486        C  0.89702325  0.82367151  0.10101702    -0.08280
C487        C  0.87587629  0.81148107  0.13440167     0.62100
H488        H  0.92190789  0.84965123  0.14653901     0.12790
H489        H  0.91185583  0.82393480  0.49590995     0.12800
C490        C  0.95472445  0.86566401  0.00764596     0.62330
F491        F  0.88166169  0.82339358  0.17372388    -0.22840
F492        F  0.87906332  0.78095116  0.13781634    -0.20170
F493        F  0.84648236  0.81850180  0.12394662    -0.19840
F494        F  0.98488349  0.86114590  0.51637029    -0.19900
F495        F  0.94857135  0.89588398  0.00620447    -0.20220
F496        F  0.94895169  0.85430800  0.46798829    -0.22890
C497        C  0.09839463  0.66385261  0.03029767    -0.05730
C498        C  0.10923706  0.68582806  0.05772458     0.00200
C499        C  0.09949273  0.68533948  0.10044849    -0.08370
C500        C  0.07876033  0.66353862  0.11324322    -0.05750
C501        C  0.06803742  0.64150210  0.08602020     0.00180
C502        C  0.07841361  0.64130373  0.04363916    -0.08280
C503        C  0.06877809  0.61764809  0.01220074     0.62100
H504        H  0.10616736  0.66421269  0.99812778     0.12790
H505        H  0.07105791  0.66322424  0.14543696     0.12800
C506        C  0.11125377  0.70683046  0.13348893     0.62330
F507        F  0.08180308  0.62189692  0.47321122    -0.22840
F508        F  0.03793895  0.61850564  0.00662415    -0.20170
F509        F  0.07742873  0.58975628  0.02659709    -0.19840
F510        F  0.10658055  0.73599540  0.12078100    -0.19900
F511        F  0.14152430  0.70151536  0.13978996    -0.20220
F512        F  0.09718446  0.70325770  0.17189296    -0.22890
C513        C  0.90142158  0.65687125  0.03042680    -0.05730
C514        C  0.89542300  0.68311124  0.05218750     0.00200
C515        C  0.90927017  0.68820582  0.09167423    -0.08370
C516        C  0.92862112  0.66640892  0.10860889    -0.05750
C517        C  0.93462917  0.63974569  0.08731844     0.00180
C518        C  0.92088538  0.63490431  0.04708499    -0.08280
C519        C  0.92662330  0.60708308  0.02114824     0.62100
H520        H  0.89037461  0.65366079  0.00034676     0.12790
H521        H  0.93934603  0.67018547  0.13876697     0.12800
C522        C  0.90403448  0.71702202  0.11528518     0.62330
F523        F  0.91180173  0.60798182  0.48274209    -0.22840
F524        F  0.91647703  0.58223550  0.04264609    -0.20170
F525        F  0.95701284  0.60430632  0.01310805    -0.19840
F526        F  0.87403519  0.71940170  0.12577978    -0.19900
F527        F  0.91205301  0.74088689  0.09006492    -0.20220
F528        F  0.92084856  0.71844326  0.15200168    -0.22890
C529        C  0.22089630  0.23430313  0.14538146    -0.05730
C530        C  0.22897220  0.23856245  0.10343337     0.00200
C531        C  0.25977987  0.24290579  0.09359461    -0.08370
C532        C  0.28155049  0.24225967  0.12613916    -0.05750
C533        C  0.27360190  0.23774472  0.16824861     0.00180
C534        C  0.24257408  0.23399266  0.17802222    -0.08280
C535        C  0.23198980  0.23261407  0.22301154     0.62100
H536        H  0.19727632  0.23159953  0.15241430     0.12790
H537        H  0.30503974  0.24575514  0.11898163     0.12800
C538        C  0.26931537  0.25041439  0.04920865     0.62330
F539        F  0.20095983  0.23278581  0.22598135    -0.22840
F540        F  0.24276421  0.25742916  0.24342355    -0.20170
F541        F  0.24250066  0.20702860  0.24254471    -0.19840
F542        F  0.25409906  0.27572527  0.03611875    -0.19900
F543        F  0.26269595  0.22700062  0.02259868    -0.20220
F544        F  0.29983141  0.25602269  0.04659048    -0.22890
C545        C  0.26151367  0.27106859  0.43008958    -0.05730
C546        C  0.23169873  0.26652915  0.41740024     0.00200
C547        C  0.22414878  0.26580165  0.37408043    -0.08370
C548        C  0.24698770  0.26994041  0.34518843    -0.05750
C549        C  0.27694478  0.27015782  0.35763653     0.00180
C550        C  0.28474948  0.27162989  0.40067482    -0.08280
C551        C  0.31721648  0.27335640  0.41536078     0.62100
H552        H  0.26680685  0.27162763  0.46318432     0.12790
H553        H  0.24142170  0.26966296  0.31217657     0.12800
C554        C  0.19337168  0.25914124  0.35564017     0.62330
F555        F  0.31936361  0.27872132  0.45810843    -0.22840
F556        F  0.33159771  0.29630020  0.39452622    -0.20170
F557        F  0.33181928  0.24681546  0.40725833    -0.19840
F558        F  0.18382898  0.28322979  0.33173019    -0.19900
F559        F  0.17207639  0.25316299  0.38548603    -0.20220
F560        F  0.19531334  0.23446877  0.32981940    -0.22890
C561        C  0.03335218  0.00896329  0.27777289    -0.05730
C562        C  0.00626907  0.02466302  0.28378897     0.00200
C563        C  0.98021186  0.01495737  0.26150415    -0.08370
C564        C  0.98233441  0.98990882  0.23488755    -0.05750
C565        C  0.00936795  0.97427110  0.22889796     0.00180
C566        C  0.03551920  0.98417850  0.25056482    -0.08280
C567        C  0.06559682  0.96858854  0.24570705     0.62100
H568        H  0.05313022  0.01632264  0.29475661     0.12790
H569        H  0.96264725  0.98256898  0.21768108     0.12800
C570        C  0.95001095  0.03047878  0.26573956     0.62330
F571        F  0.08694480  0.97932930  0.27363749    -0.22840
F572        F  0.07630083  0.97307774  0.20545967    -0.20170
F573        F  0.06234219  0.93836096  0.25321894    -0.19840
F574        F  0.95259835  0.06001789  0.25360328    -0.19900
F575        F  0.94041679  0.02878610  0.30696269    -0.20220
F576        F  0.92805570  0.01760051  0.24070188    -0.22890
C577        C  0.98231310  0.97149760  0.00252989    -0.05730
C578        C  0.99041985  0.98107992  0.04282030     0.00200
C579        C  0.99627840  0.01128564  0.05115880    -0.08370
C580        C  0.99497459  0.03138659  0.01755328    -0.05750
C581        C  0.98807947  0.02169989  0.47666630     0.00180
C582        C  0.98096069  0.99157095  0.46873846    -0.08280
C583        C  0.97372007  0.98049758  0.42476271     0.62100
H584        H  0.97819273  0.94798510  0.49746904     0.12790
H585        H  0.00038066  0.05467055  0.02253619     0.12800
C586        C  0.00504924  0.02169758  0.09491084     0.62330
F587        F  0.96935387  0.94994116  0.42401320    -0.22840
F588        F  0.99712632  0.98723195  0.39792782    -0.20170
F589        F  0.94771293  0.99400670  0.41016691    -0.19840
F590        F  0.03121770  0.00756184  0.10771765    -0.19900
F591        F  0.98237114  0.01484158  0.12285065    -0.20220
F592        F  0.00986461  0.05217299  0.09614494    -0.22890
C593        C  0.08510945  0.15619003  0.40534934    -0.05730
C594        C  0.07005813  0.13639647  0.43194738     0.00200
C595        C  0.07545554  0.13779986  0.47620076    -0.08370
C596        C  0.09603543  0.15903859  0.49179640    -0.05750
C597        C  0.11141876  0.17841154  0.46492013     0.00180
C598        C  0.10566516  0.17721272  0.42088848    -0.08280
C599        C  0.11994563  0.19898088  0.39029352     0.62100
H600        H  0.08056899  0.15507115  0.37190335     0.12790
H601        H  0.10132361  0.15994166  0.02503013     0.12800
C602        C  0.05923027  0.11767822  0.50724839     0.62330
F603        F  0.10771967  0.19685838  0.35027173    -0.22840
F604        F  0.15039977  0.19335621  0.38738591    -0.20170
F605        F  0.11528776  0.22773175  0.40414998    -0.19840
F606        F  0.06756216  0.08833476  0.50089984    -0.19900
F607        F  0.02847173  0.12060978  0.50207613    -0.20220
F608        F  0.06775848  0.12331293  0.04829081    -0.22890
C609        C  0.02276575  0.49477564  0.28899910    -0.05730
C610        C  0.99938151  0.47371540  0.28670299     0.00200
C611        C  0.97575507  0.47856292  0.25721394    -0.08370
C612        C  0.97674818  0.50407215  0.23093271    -0.05750
C613        C  0.00029186  0.52504575  0.23301837     0.00180
C614        C  0.02358961  0.52043963  0.26310811    -0.08280
C615        C  0.04898239  0.54268009  0.26883499     0.62100
H616        H  0.04043201  0.49120690  0.31204502     0.12790
H617        H  0.95910865  0.50757413  0.20783008     0.12800
C618        C  0.94987637  0.45672906  0.25263630     0.62330
F619        F  0.06627690  0.53632668  0.30410764    -0.22840
F620        F  0.03730225  0.57105693  0.27359195    -0.20170
F621        F  0.06764016  0.54205202  0.23427455    -0.19840
F622        F  0.93214783  0.45755304  0.28814355    -0.19900
F623        F  0.96093614  0.42817228  0.24723694    -0.20220
F624        F  0.93177612  0.46346058  0.21830036    -0.22890
C625        C  0.03209478  0.51290660  0.02285146    -0.05730
C626        C  0.00596209  0.51570895  0.04678927     0.00200
C627        C  0.98079310  0.49740829  0.03869225    -0.08370
C628        C  0.98185769  0.47841115  0.50425985    -0.05750
C629        C  0.00732350  0.47656910  0.47863287     0.00180
C630        C  0.03348458  0.49328167  0.48876135    -0.08280
C631        C  0.06253931  0.49098390  0.46403778     0.62100
H632        H  0.05116940  0.52693135  0.03038838     0.12790
H633        H  0.96238918  0.46485545  0.49708640     0.12800
C634        C  0.95291628  0.49753506  0.06613593     0.62330
F635        F  0.08434071  0.51034653  0.47889494    -0.22840
F636        F  0.05723623  0.49793396  0.42221670    -0.20170
F637        F  0.07398314  0.46237136  0.46737956    -0.19840
F638        F  0.93618140  0.52292289  0.05813798    -0.19900
F639        F  0.96110336  0.49663524  0.10818176    -0.20220
F640        F  0.93473510  0.47310650  0.05839649    -0.22890
C641        C  0.09190473  0.32939517  0.49175563    -0.05730
C642        C  0.11077410  0.31502180  0.46304941     0.00200
C643        C  0.10957210  0.32414670  0.41996006    -0.08370
C644        C  0.08754273  0.34465412  0.40695121    -0.05750
C645        C  0.06777313  0.35789894  0.43516029     0.00180
C646        C  0.07086328  0.35126475  0.47892195    -0.08280
C647        C  0.05234474  0.36688188  0.01232457     0.62100
H648        H  0.09358983  0.32313526  0.02458729     0.12790
H649        H  0.08552035  0.35049773  0.37398947     0.12800
C650        C  0.13089563  0.31252423  0.38689236     0.62330
F651        F  0.05948244  0.35701772  0.05248605    -0.22840
F652        F  0.02208963  0.36157474  0.00570228    -0.20170
F653        F  0.05784243  0.39722993  0.01095041    -0.19840
F654        F  0.12380538  0.28326889  0.37824385    -0.19900
F655        F  0.16026087  0.31494355  0.40099585    -0.20220
F656        F  0.12880378  0.32836201  0.34948970    -0.22890
C657        C  0.78336186  0.26507388  0.14407684    -0.05730
C658        C  0.78062490  0.24741426  0.10798879     0.00200
C659        C  0.75310405  0.23212729  0.10046593    -0.08370
C660        C  0.72960684  0.23471533  0.12972163    -0.05750
C661        C  0.73234583  0.25206937  0.16604889     0.00180
C662        C  0.75994619  0.26734544  0.17375503    -0.08280
C663        C  0.76534595  0.28518293  0.21364256     0.62100
H664        H  0.80427364  0.27692140  0.14902124     0.12790
H665        H  0.70871052  0.22291378  0.12450164     0.12800
C666        C  0.74800365  0.21358919  0.06122331     0.62330
F667        F  0.79467910  0.29527475  0.21664641    -0.22840
F668        F  0.74659015  0.30975528  0.21415030    -0.20170
F669        F  0.75989827  0.26759013  0.24854062    -0.19840
F670        F  0.76593772  0.18844396  0.06273618    -0.19900
F671        F  0.75495309  0.23007217  0.02595674    -0.20220
F672        F  0.71839735  0.20453079  0.05716085    -0.22890
C673        C  0.78158710  0.22750063  0.38431193    -0.05730
C674        C  0.77347416  0.24419773  0.41966073     0.00200
C675        C  0.74505247  0.25820927  0.42157935    -0.08370
C676        C  0.72579703  0.25496634  0.38728384    -0.05750
C677        C  0.73450367  0.23981504  0.35096740     0.00180
C678        C  0.76279977  0.22550830  0.34904070    -0.08280
C679        C  0.77531849  0.20928904  0.31107636     0.62100
H680        H  0.80351978  0.21690387  0.38354669     0.12790
H681        H  0.70366608  0.26514412  0.38846982     0.12800
C682        C  0.73292248  0.27576322  0.45858166     0.62330
F683        F  0.80178146  0.22291038  0.29892374    -0.22840
F684        F  0.78154241  0.18004720  0.32210191    -0.20170
F685        F  0.75626353  0.20906505  0.27672195    -0.19840
F686        F  0.75428070  0.28252563  0.48862302    -0.19900
F687        F  0.71033071  0.25941236  0.47744256    -0.20220
F688        F  0.72084151  0.30240622  0.44422438    -0.22890
C689        C  0.92661000  0.19515633  0.45101575    -0.05730
C690        C  0.89863432  0.18495759  0.46492118     0.00200
C691        C  0.89008870  0.15509201  0.45777196    -0.08370
C692        C  0.91019352  0.13606814  0.43694564    -0.05750
C693        C  0.93821240  0.14616351  0.42244528     0.00180
C694        C  0.94675403  0.17623689  0.42984483    -0.08280
C695        C  0.97722511  0.18818764  0.41676715     0.62100
H696        H  0.93230891  0.21832465  0.45631191     0.12790
H697        H  0.90410981  0.11299212  0.43177016     0.12800
C698        C  0.85993693  0.14345888  0.47264300     0.62330
F699        F  0.98143296  0.21739166  0.42938141    -0.22840
F700        F  0.97966684  0.18739414  0.37347243    -0.20170
F701        F  0.99979352  0.17110452  0.43485109    -0.19840
F702        F  0.83696514  0.15826300  0.45178408    -0.19900
F703        F  0.85728085  0.14813811  0.01538421    -0.20220
F704        F  0.85672503  0.11323240  0.46523125    -0.22890
C705        C  0.90747975  0.36412008  0.43446080    -0.05730
C706        C  0.93577955  0.35358573  0.42193036     0.00200
C707        C  0.94425512  0.32387977  0.43218590    -0.08370
C708        C  0.92390049  0.30583204  0.45447881    -0.05750
C709        C  0.89549383  0.31626971  0.46639583     0.00180
C710        C  0.88697596  0.34590657  0.45621429    -0.08280
C711        C  0.85678198  0.35860204  0.46916248     0.62100
H712        H  0.90153090  0.38697550  0.42704098     0.12790
H713        H  0.92979394  0.28298238  0.46204774     0.12800
C714        C  0.97489763  0.31139558  0.42098445     0.62330
F715        F  0.85521851  0.38909151  0.46245851    -0.22840
F716        F  0.85212908  0.35330819  0.01151978    -0.20170
F717        F  0.83403460  0.34543261  0.44601112    -0.19840
F718        F  0.99721814  0.32899475  0.43822679    -0.19900
F719        F  0.97796692  0.31067729  0.37777563    -0.20220
F720        F  0.97892349  0.28267432  0.43612436    -0.22890
In721      In  0.83973216  0.24908103  0.50730526     1.36870
C722        C  0.87743521  0.20693047  0.98195121     0.77630
O723        O  0.80701779  0.22330217  0.96969666    -0.60810
O724        O  0.80722904  0.27077747  0.96385033    -0.51720
C725        C  0.80549782  0.24744588  0.57671743     0.70300
O726        O  0.81338864  0.22456878  0.55701127    -0.46580
C727        C  0.87473160  0.29447132  0.48583448     0.75000
O728        O  0.87912103  0.21775713  0.51864543    -0.58440
O729        O  0.84770712  0.29231312  0.97449056    -0.48530
O730        O  0.85638010  0.21705748  0.95959521    -0.54870
C731        C  0.79594572  0.24627461  0.95269940     0.85180
O732        O  0.81897933  0.27075106  0.56513512    -0.56770
O733        O  0.88319705  0.27480219  0.51201858    -0.60060
In734      In  0.00112989  0.41364818  0.88723185     1.36870
C735        C  0.04435964  0.37810642  0.91705735     0.77630
O736        O  0.02765147  0.44661734  0.92319448    -0.60810
O737        O  0.98048126  0.44452904  0.93205673    -0.51720
C738        C  0.99993729  0.44862199  0.81803811     0.70300
O739        O  0.02389458  0.43931730  0.83488089    -0.46580
C740        C  0.95725659  0.37565505  0.90443309     0.75000
O741        O  0.03752597  0.37904766  0.87819201    -0.58440
O742        O  0.95781051  0.40207744  0.91765608    -0.48530
O743        O  0.02940971  0.39567514  0.93920529    -0.54870
C744        C  0.00522659  0.45583969  0.94315899     0.85180
O745        O  0.97677112  0.43667568  0.83308684    -0.56770
O746        O  0.97732092  0.36970130  0.87770605    -0.60060
In747      In  0.00149372  0.08361645  0.88563240     1.36870
C748        C  0.95925017  0.12354635  0.90516992     0.77630
O749        O  0.97308364  0.04840219  0.91480135    -0.60810
O750        O  0.01627436  0.05817022  0.94104749    -0.51720
C751        C  0.00591553  0.04878490  0.81661426     0.70300
O752        O  0.98421534  0.06618106  0.82298460    -0.46580
C753        C  0.04764102  0.11612603  0.91243029     0.75000
O754        O  0.97889273  0.12870469  0.87760188    -0.58440
O755        O  0.03973437  0.09201816  0.92920373    -0.48530
O756        O  0.95949697  0.09722626  0.91881775    -0.54870
C757        C  0.99248021  0.04309736  0.94298506     0.85180
O758        O  0.02699695  0.05234604  0.84265184    -0.56770
O759        O  0.03377130  0.12222075  0.87849480    -0.60060
In760      In  0.16799996  0.24613869  0.50347530     1.36870
C761        C  0.13097944  0.29066653  0.97902421     0.77630
O762        O  0.20088086  0.27835351  0.97604161    -0.60810
O763        O  0.19901361  0.23372431  0.95282024    -0.52040
C764        C  0.20490753  0.23958253  0.57052559     0.70300
O765        O  0.18361222  0.25825466  0.57010853    -0.46580
C766        C  0.13267632  0.20041049  0.48313976     0.75000
O767        O  0.13522368  0.28436505  0.51756093    -0.58440
O768        O  0.15729236  0.20619788  0.96569567    -0.48530
O769        O  0.14525507  0.27403812  0.95478616    -0.54870
C770        C  0.21010031  0.25944365  0.94982534     0.85180
O771        O  0.20490655  0.22254143  0.53933734    -0.56770
O772        O  0.12742514  0.21603054  0.51533771    -0.60060
In773      In  0.00221678  0.58352624  0.63044430     1.36870
C774        C  0.04556939  0.61998741  0.60333704     0.77630
O775        O  0.02794659  0.54773218  0.59837353    -0.60810
O776        O  0.98131403  0.55365459  0.58499323    -0.51720
C777        C  0.00050351  0.54968264  0.70085388     0.70300
O778        O  0.02389522  0.56267701  0.68840249    -0.46580
C779        C  0.95696890  0.61884402  0.60664029     0.75000
O780        O  0.03341427  0.62289722  0.63905453    -0.58440
O781        O  0.96111549  0.59298222  0.59307976    -0.48530
O782        O  0.03648838  0.59758851  0.58349429    -0.54870
C783        C  0.00502253  0.53931503  0.57804824     0.85180
O784        O  0.97735215  0.55753836  0.68073222    -0.56770
O785        O  0.97439280  0.62576953  0.63675586    -0.60060
In786      In  0.83678931  0.74906060  0.51565353     1.36870
C787        C  0.87364511  0.79271908  0.54104842     0.77630
O788        O  0.79892059  0.77576421  0.54111328    -0.60810
O789        O  0.81018677  0.73407201  0.56996958    -0.51720
C790        C  0.80178581  0.74372495  0.94663649     0.70300
O791        O  0.81266686  0.76823625  0.95850957    -0.46580
C792        C  0.87348671  0.70451231  0.53454138     0.75000
O793        O  0.87349977  0.78338627  0.50343030    -0.58440
O794        O  0.84764831  0.70710805  0.54995460    -0.48530
O795        O  0.85448747  0.78027798  0.56374202    -0.54870
C796        C  0.79398315  0.75710844  0.56997186     0.85180
O797        O  0.81150052  0.72155024  0.96703605    -0.56770
O798        O  0.87956043  0.72283456  0.00540477    -0.60060
In799      In  0.16885766  0.75128419  0.51470641     1.36870
C800        C  0.13070579  0.70856684  0.54079248     0.77630
O801        O  0.20081871  0.72010464  0.54644576    -0.60810
O802        O  0.19669107  0.76489552  0.56858970    -0.51720
C803        C  0.20780713  0.75571516  0.94984397     0.70300
O804        O  0.18654302  0.73700832  0.95006818    -0.46580
C805        C  0.13199852  0.79713831  0.52806890     0.75000
O806        O  0.13491025  0.71380565  0.50198575    -0.58440
O807        O  0.15765325  0.79480219  0.54443508    -0.48530
O808        O  0.14648346  0.72449068  0.56441557    -0.54870
C809        C  0.20808795  0.73937836  0.57350590     0.85180
O810        O  0.20691901  0.77357475  0.98006793    -0.56770
O811        O  0.12661307  0.77797093  0.00001133    -0.60060
In812      In  0.00522480  0.91535240  0.62777078     1.36870
C813        C  0.96194009  0.87848681  0.60164931     0.77630
O814        O  0.97677625  0.95187971  0.60190558    -0.60810
O815        O  0.01969534  0.94335403  0.57457827    -0.51720
C816        C  0.00912027  0.94954056  0.69719340     0.70300
O817        O  0.98538727  0.93627551  0.68616404    -0.46580
C818        C  0.05093414  0.88026844  0.60778851     0.75000
O819        O  0.97162394  0.87804270  0.63929262    -0.58440
O820        O  0.04935070  0.90726955  0.59711587    -0.48530
O821        O  0.97371143  0.89828748  0.57924012    -0.54870
C822        C  0.99583530  0.95843639  0.57430095     0.85180
O823        O  0.03165284  0.94179514  0.67618869    -0.56770
O824        O  0.03074740  0.87192567  0.63310740    -0.60060
In825      In  0.50437682  0.91250282  0.63847379     1.36870
C826        C  0.54730127  0.87445763  0.66308979     0.77630
O827        O  0.53141886  0.94820155  0.66869995    -0.60810
O828        O  0.48629580  0.94054703  0.68901289    -0.51720
C829        C  0.49966534  0.94814370  0.56953500     0.70300
O830        O  0.52352263  0.93459421  0.57974094    -0.46580
C831        C  0.46001569  0.87568414  0.65930457     0.75000
O832        O  0.53484468  0.87253940  0.62727141    -0.58440
O833        O  0.46545805  0.89966225  0.67819387    -0.48530
O834        O  0.54009960  0.89723468  0.68337729    -0.54870
C835        C  0.51051265  0.95472586  0.69364432     0.85180
O836        O  0.47766709  0.94041732  0.59166815    -0.56770
O837        O  0.47524322  0.87176354  0.62628393    -0.60060
In838      In  0.66791248  0.74305783  0.75592979     1.36870
C839        C  0.63285954  0.78770066  0.72856673     0.77630
O840        O  0.70567008  0.77128003  0.73283056    -0.60810
O841        O  0.69341769  0.73191991  0.69924741    -0.51720
C842        C  0.70302413  0.73823730  0.82518439     0.70300
O843        O  0.68281680  0.75786674  0.82123285    -0.46580
C844        C  0.63083986  0.69801624  0.73963623     0.75000
O845        O  0.63479821  0.78086568  0.76727707    -0.58440
O846        O  0.65829244  0.69748849  0.73063493    -0.48530
O847        O  0.64905791  0.77198693  0.70541344    -0.54870
C848        C  0.71013464  0.75450335  0.70178417     0.85180
O849        O  0.70263866  0.71933462  0.79605305    -0.56770
O850        O  0.62309350  0.71976165  0.76219278    -0.60060
In851      In  0.50200214  0.58205949  0.63533496     1.36870
C852        C  0.45828284  0.61878114  0.66116027     0.77630
O853        O  0.47888964  0.54709243  0.67293677    -0.60810
O854        O  0.52526662  0.55507037  0.68317695    -0.51720
C855        C  0.50374302  0.54630207  0.56685520     0.70300
O856        O  0.48005372  0.55218009  0.58654417    -0.46580
C857        C  0.54676668  0.61898283  0.65541330     0.75000
O858        O  0.46916855  0.62045462  0.62444338    -0.58440
O859        O  0.54492609  0.59249323  0.66845950    -0.48530
O860        O  0.46854503  0.59739673  0.68225775    -0.54870
C861        C  0.50225256  0.54077759  0.69388750     0.85180
O862        O  0.52582288  0.56175903  0.57867511    -0.56770
O863        O  0.52727546  0.62559528  0.62770881    -0.60060
In864      In  0.33854357  0.75085594  0.75432983     1.36870
C865        C  0.37728746  0.70928862  0.72749177     0.77630
O866        O  0.30533865  0.71885157  0.72724445    -0.60810
O867        O  0.30983332  0.76243072  0.70032373    -0.51720
C868        C  0.30167841  0.75574011  0.82160691     0.70300
O869        O  0.32330128  0.73740591  0.82098814    -0.46580
C870        C  0.37332534  0.79761878  0.73815494     0.75000
O871        O  0.37199550  0.71295300  0.76631865    -0.58440
O872        O  0.34696498  0.79509559  0.72443097    -0.48530
O873        O  0.36234752  0.72622407  0.70380126    -0.54870
C874        C  0.29711173  0.73740299  0.69951238     0.85180
O875        O  0.30137446  0.77317238  0.79059713    -0.56770
O876        O  0.38061797  0.77812558  0.76524681    -0.60060
In877      In  0.50484626  0.41053403  0.88097950     1.36870
C878        C  0.46157429  0.37359950  0.85512532     0.77630
O879        O  0.47696787  0.44484615  0.84781343    -0.60810
O880        O  0.52412255  0.44283230  0.83766016    -0.51720
C881        C  0.50765500  0.44600183  0.94951917     0.70300
O882        O  0.48530234  0.42966481  0.94125895    -0.46580
C883        C  0.54981176  0.37449768  0.86069116     0.75000
O884        O  0.46933073  0.37511341  0.89348244    -0.58440
O885        O  0.54145212  0.39638814  0.83896241    -0.48530
O886        O  0.47514086  0.39141630  0.83138335    -0.54870
C887        C  0.49940239  0.45496156  0.82833309     0.85180
O888        O  0.52961226  0.44142201  0.92560238    -0.56770
O889        O  0.53680932  0.37196476  0.89587204    -0.60060
In890      In  0.66963989  0.24644477  0.76246551     1.36870
C891        C  0.63299918  0.20159849  0.78215807     0.77630
O892        O  0.70263366  0.21892288  0.79817555    -0.60810
O893        O  0.70167358  0.26630321  0.80621084    -0.51720
C894        C  0.70705442  0.25135117  0.69679922     0.70300
O895        O  0.69060350  0.22875946  0.70245480    -0.46580
C896        C  0.63225002  0.29030806  0.78530362     0.75000
O897        O  0.63037442  0.21612182  0.74804730    -0.58440
O898        O  0.65298067  0.27991051  0.80803062    -0.48530
O899        O  0.65558864  0.20861467  0.80383432    -0.54870
C900        C  0.71311730  0.24157311  0.81651723     0.85180
O901        O  0.70099994  0.27258382  0.72089692    -0.56770
O902        O  0.63125587  0.27896617  0.74894354    -0.60060
In903      In  0.50285333  0.08299798  0.87867911     1.36870
C904        C  0.54766559  0.11830180  0.85321916     0.77630
O905        O  0.52780465  0.04455627  0.85157922    -0.60810
O906        O  0.48918601  0.06137580  0.81938771    -0.51720
C907        C  0.50088264  0.04651454  0.94669689     0.70300
O908        O  0.52266648  0.06363168  0.93905455    -0.46580
C909        C  0.45588962  0.11883213  0.86614206     0.75000
O910        O  0.54124110  0.11559713  0.89182332    -0.58440
O911        O  0.45557520  0.09160511  0.85697295    -0.48530
O912        O  0.53161764  0.10304957  0.82896389    -0.54870
C913        C  0.51055358  0.04305499  0.82010269     0.85180
O914        O  0.47875366  0.05091178  0.92255196    -0.56770
O915        O  0.47852439  0.12695891  0.88742454    -0.60060
In916      In  0.33618397  0.24633848  0.76731935     1.36870
C917        C  0.37607127  0.28954227  0.78496201     0.77630
O918        O  0.30105867  0.27736401  0.79148912    -0.60810
O919        O  0.31486321  0.23991498  0.82867574    -0.51720
C920        C  0.29771384  0.23939066  0.70144887     0.70300
O921        O  0.31915737  0.25786212  0.70077922    -0.46580
C922        C  0.36853324  0.19840801  0.78862540     0.75000
O923        O  0.37435251  0.27809715  0.74865568    -0.58440
O924        O  0.34215620  0.20275178  0.80075273    -0.48530
O925        O  0.35718205  0.27935254  0.81021358    -0.54870
C926        C  0.29857968  0.26275932  0.82538372     0.85180
O927        O  0.29798512  0.22306116  0.73362796    -0.56770
O928        O  0.37688066  0.21669388  0.76065291    -0.60060
C929        C  0.41896250  0.17590861  0.79429156    -0.05730
C930        C  0.38910162  0.17576860  0.80804206     0.00200
C931        C  0.38118980  0.15676536  0.84248570    -0.08370
C932        C  0.40358251  0.13840457  0.86091661    -0.05750
C933        C  0.43351589  0.13979898  0.84798519     0.00180
C934        C  0.44132096  0.15880281  0.81418135    -0.08280
C935        C  0.47350945  0.16159550  0.79995180     0.62100
H936        H  0.42508579  0.19054651  0.76859822     0.12790
H937        H  0.39809933  0.12324108  0.88631216     0.12800
C938        C  0.34974718  0.15609034  0.86079869     0.62330
F939        F  0.47648782  0.18058890  0.76579017    -0.22840
F940        F  0.48442903  0.13394964  0.78852136    -0.20170
F941        F  0.49029696  0.17292142  0.83289395    -0.19840
F942        F  0.32908885  0.14887110  0.82981244    -0.19900
F943        F  0.34286380  0.18364427  0.87757419    -0.20220
F944        F  0.34715413  0.13519445  0.89274979    -0.22890
C945        C  0.62157133  0.15568159  0.82340771    -0.05730
C946        C  0.61103332  0.17917231  0.79757732     0.00200
C947        C  0.57967896  0.18263413  0.79145431    -0.08370
C948        C  0.56026328  0.16144530  0.80901127    -0.05750
C949        C  0.57050088  0.13894264  0.83613195     0.00180
C950        C  0.60167763  0.13551930  0.84310646    -0.08280
C951        C  0.61367359  0.11006899  0.86986479     0.62100
H952        H  0.64555581  0.15345389  0.82847165     0.12790
H953        H  0.53664249  0.16271134  0.80215955     0.12800
C954        C  0.56643909  0.20998845  0.77011243     0.62330
F955        F  0.64476913  0.10978854  0.87125966    -0.22840
F956        F  0.60404004  0.08319906  0.85338263    -0.20170
F957        F  0.60322462  0.11275077  0.91050844    -0.19840
F958        F  0.57425911  0.21065836  0.72813842    -0.19900
F959        F  0.57718358  0.23513873  0.79018013    -0.20220
F960        F  0.53539091  0.21060685  0.77232624    -0.22890
C961        C  0.56375028  0.34037666  0.80397647    -0.05730
C962        C  0.57118935  0.35271709  0.84316731     0.00200
C963        C  0.59946376  0.34664068  0.86135490    -0.08370
C964        C  0.61866841  0.32644124  0.84095798    -0.05750
C965        C  0.61103900  0.31317523  0.80206250     0.00180
C966        C  0.58333376  0.32111674  0.78248119    -0.08280
C967        C  0.57436981  0.31019229  0.73899859     0.62100
H968        H  0.54229106  0.34637054  0.79002673     0.12790
H969        H  0.64012205  0.32110518  0.85536244     0.12800
C970        C  0.60973308  0.36258921  0.90086339     0.62330
F971        F  0.54678638  0.32145807  0.72620330    -0.22840
F972        F  0.57225677  0.27952559  0.73873663    -0.20170
F973        F  0.59554893  0.31924680  0.71002885    -0.19840
F974        F  0.59110009  0.35526316  0.93391809    -0.19900
F975        F  0.60870523  0.39309235  0.89422119    -0.20220
F976        F  0.63888638  0.35502118  0.91203921    -0.22890
C977        C  0.44708941  0.33639419  0.80151928    -0.05730
C978        C  0.43923663  0.35236168  0.83782986     0.00200
C979        C  0.41006243  0.34929240  0.85438159    -0.08370
C980        C  0.38992876  0.32960428  0.83455918    -0.05750
C981        C  0.39799466  0.31260964  0.79915677     0.00180
C982        C  0.42710015  0.31620648  0.78204866    -0.08280
C983        C  0.43743208  0.29831788  0.74442163     0.62100
H984        H  0.46942329  0.33952177  0.78891554     0.12790
H985        H  0.36753904  0.32710905  0.84708907     0.12800
C986        C  0.39998762  0.36726201  0.89209911     0.62330
F987        F  0.46699093  0.30441169  0.73417680    -0.22840
F988        F  0.41971122  0.30518648  0.70982680    -0.20170
F989        F  0.43529191  0.26815573  0.75322214    -0.19840
F990        F  0.40417015  0.39734370  0.88430590    -0.19900
F991        F  0.41653952  0.35896397  0.92717962    -0.20220
F992        F  0.36989887  0.36279211  0.90093559    -0.22890
C993        C  0.48928075  0.49510637  0.54490292    -0.05730
C994        C  0.50566345  0.52119578  0.53591727     0.00200
C995        C  0.52398131  0.52171032  0.49958498    -0.08370
C996        C  0.52442755  0.49643674  0.97302562    -0.05750
C997        C  0.50755151  0.47052280  0.98161189     0.00180
C998        C  0.49024564  0.46962197  0.51890082    -0.08280
C999        C  0.47371303  0.44158092  0.53221207     0.62100
H1000       H  0.47590281  0.49463551  0.57321381     0.12790
H1001       H  0.53772498  0.49696925  0.94464932     0.12800
C1002       C  0.54229100  0.54907033  0.98813668     0.62330
F1003       F  0.46285508  0.44372935  0.57278253    -0.22840
F1004       F  0.49302589  0.41740522  0.53096271    -0.20170
F1005       F  0.44959040  0.43664355  0.50556706    -0.19840
F1006       F  0.56483201  0.55327027  0.51763292    -0.19900
F1007       F  0.52388851  0.57394013  0.98695670    -0.20220
F1008       F  0.55563448  0.54630420  0.94914667    -0.22890
C1009       C  0.52533875  0.49226128  0.78644993    -0.05730
C1010       C  0.49797547  0.47848587  0.79610498     0.00200
C1011       C  0.47182188  0.48545126  0.77241499    -0.08370
C1012       C  0.47440428  0.50612018  0.73942609    -0.05750
C1013       C  0.50209038  0.51925179  0.72900486     0.00180
C1014       C  0.52823295  0.51209065  0.75283932    -0.08280
C1015       C  0.55928789  0.52461277  0.74330444     0.62100
H1016       H  0.54494704  0.48688970  0.80532312     0.12790
H1017       H  0.45464587  0.51194518  0.72112870     0.12800
C1018       C  0.44161205  0.47079836  0.78071430     0.62330
F1019       F  0.58132830  0.51267870  0.76932872    -0.22840
F1020       F  0.55935473  0.55516360  0.74906224    -0.20170
F1021       F  0.56713138  0.51790663  0.70239719    -0.19840
F1022       F  0.43200458  0.47780016  0.82073784    -0.19900
F1023       F  0.44417870  0.44018951  0.77687675    -0.20220
F1024       F  0.41969180  0.48029627  0.75258085    -0.22890
C1025       C  0.40287749  0.66010765  0.73295424    -0.05730
C1026       C  0.39863692  0.68672619  0.71045660     0.00200
C1027       C  0.41431172  0.69089217  0.67197669    -0.08370
C1028       C  0.43264021  0.66776060  0.65685506    -0.05750
C1029       C  0.43669781  0.64094185  0.67897448     0.00180
C1030       C  0.42168679  0.63708034  0.71821636    -0.08280
C1031       C  0.42512104  0.60900263  0.74487195     0.62100
H1032       H  0.39100189  0.65740106  0.76232077     0.12790
H1033       H  0.44441075  0.67072567  0.62746119     0.12800
C1034       C  0.41263755  0.71982276  0.64704510     0.62330
F1035       F  0.40664317  0.60933183  0.77972674    -0.22840
F1036       F  0.45442119  0.60652349  0.75926303    -0.20170
F1037       F  0.41761788  0.58420383  0.72133456    -0.19840
F1038       F  0.41754598  0.74378723  0.67332397    -0.19900
F1039       F  0.38475358  0.72241721  0.62822996    -0.20220
F1040       F  0.43399538  0.72103261  0.61562229    -0.22890
C1041       C  0.59187302  0.62796679  0.69992842    -0.05730
C1042       C  0.56900704  0.64020510  0.67414672     0.00200
C1043       C  0.56638161  0.67177581  0.67122338    -0.08370
C1044       C  0.58639521  0.68961784  0.69474879    -0.05750
C1045       C  0.60904273  0.67719943  0.72026665     0.00180
C1046       C  0.61204635  0.64592307  0.72286065    -0.08280
C1047       C  0.63584559  0.63165608  0.75082322     0.62100
H1048       H  0.59381223  0.60395719  0.70228964     0.12790
H1049       H  0.58498193  0.71369816  0.69270216     0.12800
C1050       C  0.54262073  0.68686230  0.64395611     0.62330
F1051       F  0.63285035  0.60095463  0.75263181    -0.22840
F1052       F  0.63339904  0.64259318  0.79126077    -0.20170
F1053       F  0.66411783  0.63809149  0.73554598    -0.19840
F1054       F  0.51426842  0.67894655  0.65761007    -0.19900
F1055       F  0.54617780  0.67840841  0.60251202    -0.20220
F1056       F  0.54466613  0.71764750  0.64546646    -0.22890
C1057       C  0.52606380  0.98248202  0.52000462    -0.05730
C1058       C  0.49857624  0.97255841  0.53667587     0.00200
C1059       C  0.47177199  0.98758229  0.52370981    -0.08370
C1060       C  0.47377953  0.01181253  0.99511738    -0.05750
C1061       C  0.50135499  0.02204782  0.97925350     0.00180
C1062       C  0.52803736  0.00676763  0.99162457    -0.08280
C1063       C  0.55857961  0.01532038  0.97423285     0.62100
H1064       H  0.54641620  0.97118599  0.52991841     0.12790
H1065       H  0.45354590  0.02326668  0.98501720     0.12800
C1066       C  0.44099390  0.97842305  0.53964400     0.62330
F1067       F  0.58106399  0.99618242  0.98791714    -0.22840
F1068       F  0.56607584  0.04375322  0.98723010    -0.20170
F1069       F  0.55784770  0.01431314  0.93076467    -0.19840
F1070       F  0.43925391  0.98350010  0.58242082    -0.19900
F1071       F  0.43612086  0.94853876  0.53148366    -0.20220
F1072       F  0.41807320  0.99441767  0.52036270    -0.22890
C1073       C  0.51651496  0.00665936  0.71425891    -0.05730
C1074       C  0.51409220  0.97681735  0.72641617     0.00200
C1075       C  0.51389466  0.96859238  0.76933636    -0.08370
C1076       C  0.51423010  0.99117656  0.79938125    -0.05750
C1077       C  0.51441703  0.02111854  0.78720591     0.00180
C1078       C  0.51661454  0.02932605  0.74432389    -0.08280
C1079       C  0.51955000  0.06164151  0.73052247     0.62100
H1080       H  0.51724251  0.01204735  0.68103195     0.12790
H1081       H  0.51317400  0.98569506  0.83256551     0.12800
C1082       C  0.51402714  0.93618407  0.78310768     0.62330
F1083       F  0.52454585  0.06413357  0.68772761    -0.22840
F1084       F  0.54355501  0.07466050  0.75124931    -0.20170
F1085       F  0.49353390  0.07708923  0.73961150    -0.19840
F1086       F  0.53859533  0.92211943  0.76581029    -0.19900
F1087       F  0.48800394  0.92222255  0.76976690    -0.20220
F1088       F  0.51595500  0.93321291  0.82639625    -0.22890
C1089       C  0.42421344  0.80847435  0.71274059    -0.05730
C1090       C  0.39501951  0.81900827  0.71960538     0.00200
C1091       C  0.38685359  0.84763695  0.70413966    -0.08370
C1092       C  0.40881983  0.86504638  0.68379504    -0.05750
C1093       C  0.43792116  0.85422377  0.67630910     0.00180
C1094       C  0.44571725  0.82512161  0.69063859    -0.08280
C1095       C  0.47589621  0.80996096  0.68442982     0.62100
H1096       H  0.43020422  0.78637819  0.72396186     0.12790
H1097       H  0.40332262  0.88735335  0.67301437     0.12800
C1098       C  0.35532142  0.85999118  0.70926505     0.62330
F1099       F  0.48694993  0.80049500  0.72295872    -0.22840
F1100       F  0.49728056  0.82789346  0.66625841    -0.20170
F1101       F  0.47190685  0.78526983  0.65911123    -0.19840
F1102       F  0.34658128  0.85751665  0.75078691    -0.19900
F1103       F  0.33550109  0.84437469  0.68398119    -0.20220
F1104       F  0.35360928  0.88977559  0.69785675    -0.22890
C1105       C  0.58943284  0.82156690  0.73731062    -0.05730
C1106       C  0.61233918  0.81112373  0.71122428     0.00200
C1107       C  0.61389173  0.82207425  0.66906661    -0.08370
C1108       C  0.59168538  0.84216912  0.65463294    -0.05750
C1109       C  0.56840365  0.85193210  0.68054087     0.00180
C1110       C  0.56692972  0.84108669  0.72268365    -0.08280
C1111       C  0.54202357  0.84798072  0.75373403     0.62100
H1112       H  0.58827231  0.81335066  0.76938095     0.12790
H1113       H  0.59250216  0.85080422  0.62280418     0.12800
C1114       C  0.63896121  0.81336028  0.63922174     0.62330
F1115       F  0.53192199  0.82168292  0.77161327    -0.22840
F1116       F  0.51739985  0.86196311  0.73590584    -0.20170
F1117       F  0.55347960  0.86568099  0.78546745    -0.19840
F1118       F  0.63622334  0.78364535  0.62844691    -0.19900
F1119       F  0.66660233  0.81824404  0.65813891    -0.20220
F1120       F  0.63814294  0.82990671  0.60236564    -0.22890
C1121       C  0.22455994  0.75368876  0.87527943    -0.05730
C1122       C  0.23234774  0.75626076  0.91777136     0.00200
C1123       C  0.26338277  0.75815683  0.92889239    -0.08370
C1124       C  0.28539506  0.75770769  0.89692254    -0.05750
C1125       C  0.27749258  0.75596195  0.85429544     0.00180
C1126       C  0.24648537  0.75375364  0.84338078    -0.08280
C1127       C  0.23658769  0.75026575  0.79813303     0.62100
H1128       H  0.20095397  0.75189722  0.86721291     0.12790
H1129       H  0.30903507  0.75900583  0.90496523     0.12800
C1130       C  0.27335198  0.75903769  0.97450803     0.62330
F1131       F  0.20593746  0.74560213  0.79436059    -0.22840
F1132       F  0.25111951  0.72594532  0.78104160    -0.20170
F1133       F  0.24358473  0.77584350  0.77585449    -0.19840
F1134       F  0.26104825  0.73504952  0.99552249    -0.19900
F1135       F  0.26393193  0.78526576  0.99290419    -0.20220
F1136       F  0.30428778  0.75735618  0.97877377    -0.22890
C1137       C  0.25698936  0.72217995  0.59800356    -0.05730
C1138       C  0.22841279  0.73292014  0.60823777     0.00200
C1139       C  0.22162400  0.74069607  0.65027345    -0.08370
C1140       C  0.24459711  0.73905339  0.68002000    -0.05750
C1141       C  0.27372186  0.73124564  0.66894002     0.00180
C1142       C  0.28041063  0.72270056  0.62750724    -0.08280
C1143       C  0.31241325  0.71671590  0.61406152     0.62100
H1144       H  0.26148787  0.71578368  0.56598991     0.12790
H1145       H  0.24008621  0.74608094  0.71165186     0.12800
C1146       C  0.19129651  0.75112858  0.66634299     0.62330
F1147       F  0.31402126  0.70809334  0.57239133    -0.22840
F1148       F  0.32473280  0.69430979  0.63872590    -0.20170
F1149       F  0.32908628  0.74250232  0.61877562    -0.19840
F1150       F  0.18169691  0.73164046  0.69731517    -0.19900
F1151       F  0.16924063  0.75263749  0.63588391    -0.20220
F1152       F  0.19436856  0.77918270  0.68374034    -0.22890
C1153       C  0.12139677  0.84623425  0.55994107    -0.05730
C1154       C  0.10998233  0.81931279  0.54392871     0.00200
C1155       C  0.07912171  0.81247988  0.54973134    -0.08370
C1156       C  0.06111263  0.83258274  0.57238047    -0.05750
C1157       C  0.07257412  0.85945269  0.58822562     0.00180
C1158       C  0.10311270  0.86675330  0.58136535    -0.08280
C1159       C  0.11656790  0.89569235  0.59739913     0.62100
H1160       H  0.14501202  0.85106168  0.55557557     0.12790
H1161       H  0.03751096  0.82780550  0.57705108     0.12800
C1162       C  0.06520633  0.78394973  0.53296526     0.62330
F1163       F  0.14747168  0.89635089  0.59278165    -0.22840
F1164       F  0.11027324  0.89900815  0.63965943    -0.20170
F1165       F  0.10466604  0.91951733  0.57513167    -0.19840
F1166       F  0.07999710  0.75946125  0.54960957    -0.19900
F1167       F  0.06726011  0.78353590  0.48961350    -0.20220
F1168       F  0.03513587  0.78150163  0.54332266    -0.22890
C1169       C  0.75483967  0.72472300  0.84907451    -0.05730
C1170       C  0.72713958  0.73849285  0.85846541     0.00200
C1171       C  0.72426237  0.75332904  0.89760625    -0.08370
C1172       C  0.74949374  0.75497014  0.92470799    -0.05750
C1173       C  0.77711198  0.74164392  0.91488583     0.00180
C1174       C  0.77988239  0.72608442  0.87660458    -0.08280
C1175       C  0.80955946  0.71207383  0.86434414     0.62100
H1176       H  0.75702729  0.71331931  0.81934511     0.12790
H1177       H  0.74780147  0.76665295  0.95424352     0.12800
C1178       C  0.69462119  0.76668329  0.91152838     0.62330
F1179       F  0.80830030  0.69963851  0.82461033    -0.22840
F1180       F  0.81711831  0.68983089  0.89273647    -0.20170
F1181       F  0.83182253  0.73358478  0.86446612    -0.19840
F1182       F  0.67194498  0.74580206  0.90726303    -0.19900
F1183       F  0.68791415  0.79154605  0.88739640    -0.20220
F1184       F  0.69553457  0.77536204  0.95322841    -0.22890
C1185       C  0.78270591  0.76377412  0.64406124    -0.05730
C1186       C  0.77199292  0.76201608  0.60264099     0.00200
C1187       C  0.74094630  0.76179075  0.59384487    -0.08370
C1188       C  0.72117350  0.76101876  0.62772566    -0.05750
C1189       C  0.73189172  0.76101072  0.66922574     0.00180
C1190       C  0.76288082  0.76363941  0.67801647    -0.08280
C1191       C  0.77486181  0.76463286  0.72277283     0.62100
H1192       H  0.80676760  0.76424805  0.64952197     0.12790
H1193       H  0.69717861  0.75941572  0.62216821     0.12800
C1194       C  0.72902299  0.76111550  0.54910076     0.62330
F1195       F  0.80592414  0.76618772  0.72402155    -0.22840
F1196       F  0.76614435  0.73925253  0.74428301    -0.20170
F1197       F  0.76363650  0.78948009  0.74292099    -0.19840
F1198       F  0.74014849  0.73638507  0.52851298    -0.19900
F1199       F  0.73796859  0.78668748  0.52825633    -0.20220
F1200       F  0.69795163  0.75983527  0.54772723    -0.22890
C1201       C  0.91948685  0.84391944  0.61366473    -0.05730
C1202       C  0.93880779  0.85757321  0.58487140     0.00200
C1203       C  0.93559955  0.85088856  0.54128649    -0.08370
C1204       C  0.91404647  0.82968229  0.52879589    -0.05750
C1205       C  0.89488187  0.81572303  0.55761160     0.00180
C1206       C  0.89702548  0.82367966  0.60101416    -0.08280
C1207       C  0.87588185  0.81148658  0.63440110     0.62100
H1208       H  0.92190601  0.84966767  0.64653181     0.12790
H1209       H  0.91185393  0.82393238  0.99591280     0.12800
C1210       C  0.95472390  0.86566956  0.50763718     0.62330
F1211       F  0.88166826  0.82339936  0.67372285    -0.22840
F1212       F  0.87907248  0.78095694  0.63781492    -0.20170
F1213       F  0.84648654  0.81850403  0.62394947    -0.19840
F1214       F  0.98488420  0.86113567  0.01637278    -0.19900
F1215       F  0.94856753  0.89588866  0.50618495    -0.20220
F1216       F  0.94894770  0.85430961  0.96799417    -0.22890
C1217       C  0.09839480  0.66385429  0.53029680    -0.05730
C1218       C  0.10923686  0.68582958  0.55772427     0.00200
C1219       C  0.09949271  0.68534021  0.60044824    -0.08370
C1220       C  0.07876047  0.66353906  0.61324235    -0.05750
C1221       C  0.06803764  0.64150293  0.58601867     0.00180
C1222       C  0.07841406  0.64130499  0.54363776    -0.08280
C1223       C  0.06877910  0.61764936  0.51219900     0.62100
H1224       H  0.10616756  0.66421486  0.49812694     0.12790
H1225       H  0.07105804  0.66322422  0.64543608     0.12800
C1226       C  0.11125369  0.70683077  0.63348927     0.62330
F1227       F  0.08180147  0.62189559  0.97321254    -0.22840
F1228       F  0.03794003  0.61850682  0.50662145    -0.20170
F1229       F  0.07742958  0.58975754  0.52659556    -0.19840
F1230       F  0.10658036  0.73599585  0.62078213    -0.19900
F1231       F  0.14152426  0.70151571  0.63979012    -0.20220
F1232       F  0.09718441  0.70325742  0.67189321    -0.22890
C1233       C  0.90142096  0.65687255  0.53042609    -0.05730
C1234       C  0.89542282  0.68311250  0.55218723     0.00200
C1235       C  0.90927009  0.68820661  0.59167401    -0.08370
C1236       C  0.92862091  0.66640942  0.60860811    -0.05750
C1237       C  0.93462878  0.63974641  0.58731702     0.00180
C1238       C  0.92088466  0.63490532  0.54708378    -0.08280
C1239       C  0.92662228  0.60708415  0.52114672     0.62100
H1240       H  0.89037386  0.65366242  0.50034607     0.12790
H1241       H  0.93934603  0.67018566  0.63876614     0.12800
C1242       C  0.90403504  0.71702282  0.61528528     0.62330
F1243       F  0.91180312  0.60798058  0.98274331    -0.22840
F1244       F  0.91647622  0.58223647  0.54264458    -0.20170
F1245       F  0.95701174  0.60430738  0.51310592    -0.19840
F1246       F  0.87403584  0.71940322  0.62578013    -0.19900
F1247       F  0.91205403  0.74088758  0.59006511    -0.20220
F1248       F  0.92084926  0.71844356  0.65200168    -0.22890
C1249       C  0.22088833  0.23428243  0.64538866    -0.05730
C1250       C  0.22895945  0.23853734  0.60343763     0.00200
C1251       C  0.25976562  0.24288879  0.59359439    -0.08370
C1252       C  0.28153920  0.24224871  0.62613586    -0.05750
C1253       C  0.27359524  0.23773639  0.66824772     0.00180
C1254       C  0.24256854  0.23398193  0.67802686    -0.08280
C1255       C  0.23198694  0.23261045  0.72301828     0.62100
H1256       H  0.19726951  0.23157554  0.65242611     0.12790
H1257       H  0.30502726  0.24574765  0.61897393     0.12800
C1258       C  0.26929624  0.25040180  0.54920797     0.62330
F1259       F  0.20095712  0.23278167  0.72599097    -0.22840
F1260       F  0.24276114  0.25742894  0.74342305    -0.20170
F1261       F  0.24249944  0.20702822  0.74255807    -0.19840
F1262       F  0.25407001  0.27570750  0.53612043    -0.19900
F1263       F  0.26268451  0.22698589  0.52259814    -0.20220
F1264       F  0.29981006  0.25602188  0.54658723    -0.22890
C1265       C  0.26154953  0.27111365  0.93008702    -0.05730
C1266       C  0.23173172  0.26658241  0.91740794     0.00200
C1267       C  0.22417436  0.26584558  0.87409074    -0.08370
C1268       C  0.24700916  0.26997030  0.84518902    -0.05750
C1269       C  0.27696791  0.27018002  0.85762900     0.00180
C1270       C  0.28478043  0.27165748  0.90066461    -0.08280
C1271       C  0.31725024  0.27336835  0.91534111     0.62100
H1272       H  0.26684799  0.27167494  0.96318006     0.12790
H1273       H  0.24143851  0.26968471  0.81218064     0.12800
C1274       C  0.19339350  0.25918312  0.85566372     0.62330
F1275       F  0.31940679  0.27873345  0.95808793    -0.22840
F1276       F  0.33163909  0.29630441  0.89450114    -0.20170
F1277       F  0.33183865  0.24682005  0.90723596    -0.19840
F1278       F  0.18385169  0.28326348  0.83173673    -0.19900
F1279       F  0.17210089  0.25322160  0.88551974    -0.20220
F1280       F  0.19532725  0.23449938  0.82986292    -0.22890
C1281       C  0.03339445  0.00894888  0.77777830    -0.05730
C1282       C  0.00632081  0.02465976  0.78381328     0.00200
C1283       C  0.98025410  0.01497330  0.76153428    -0.08370
C1284       C  0.98235922  0.98993230  0.73489993    -0.05750
C1285       C  0.00938440  0.97428336  0.72889068     0.00180
C1286       C  0.03554415  0.98417100  0.75055635    -0.08280
C1287       C  0.06561362  0.96856799  0.74568323     0.62100
H1288       H  0.05317930  0.01629422  0.79475867     0.12790
H1289       H  0.96266497  0.98260728  0.71769665     0.12800
C1290       C  0.95006155  0.03050651  0.76579724     0.62330
F1291       F  0.08697100  0.97929237  0.77361242    -0.22840
F1292       F  0.07631415  0.97306132  0.70543492    -0.20170
F1293       F  0.06234555  0.93834047  0.75318339    -0.19840
F1294       F  0.95265718  0.06004689  0.75367102    -0.19900
F1295       F  0.94048200  0.02881029  0.80702693    -0.20220
F1296       F  0.92809188  0.01764210  0.74076996    -0.22890
C1297       C  0.98232850  0.97150080  0.50247414    -0.05730
C1298       C  0.99044058  0.98109406  0.54275836     0.00200
C1299       C  0.99630346  0.01130292  0.55107683    -0.08370
C1300       C  0.99499985  0.03139449  0.51745791    -0.05750
C1301       C  0.98807193  0.02170416  0.97674812     0.00180
C1302       C  0.98095333  0.99157495  0.96880206    -0.08280
C1303       C  0.97372643  0.98050220  0.92482030     0.62100
H1304       H  0.97817995  0.94798273  0.99751332     0.12790
H1305       H  0.00041076  0.05467998  0.52241948     0.12800
C1306       C  0.00507032  0.02172821  0.59482360     0.62330
F1307       F  0.96937023  0.94994437  0.92406325    -0.22840
F1308       F  0.99713696  0.98724397  0.89799625    -0.20170
F1309       F  0.94771656  0.99400132  0.91021530    -0.19840
F1310       F  0.03123689  0.00759554  0.60764467    -0.19900
F1311       F  0.98238903  0.01488153  0.62276310    -0.20220
F1312       F  0.00988582  0.05220403  0.59603916    -0.22890
C1313       C  0.08513429  0.15624518  0.90530175    -0.05730
C1314       C  0.07039066  0.13617617  0.93183570     0.00200
C1315       C  0.07614206  0.13726821  0.97602836    -0.08370
C1316       C  0.09660581  0.15861112  0.99164568    -0.05750
C1317       C  0.11163349  0.17829771  0.96482683     0.00180
C1318       C  0.10567045  0.17728373  0.92084242    -0.08280
C1319       C  0.11975557  0.19922188  0.89031148     0.62100
H1320       H  0.08037969  0.15531903  0.87189963     0.12790
H1321       H  0.10053970  0.16054857  0.52522024     0.12800
C1322       C  0.06046391  0.11666051  0.00699848     0.62330
F1323       F  0.10740736  0.19719650  0.85035194    -0.22840
F1324       F  0.15021838  0.19371608  0.88716492    -0.20170
F1325       F  0.11504244  0.22790350  0.90441003    -0.19840
F1326       F  0.06899062  0.08747337  0.99980428    -0.19900
F1327       F  0.02962817  0.11935995  0.00259561    -0.20220
F1328       F  0.06610247  0.12473316  0.54854286    -0.22890
C1329       C  0.02276073  0.49477711  0.78899705    -0.05730
C1330       C  0.99937558  0.47371792  0.78669996     0.00200
C1331       C  0.97575043  0.47856580  0.75720920    -0.08370
C1332       C  0.97674509  0.50407487  0.73092805    -0.05750
C1333       C  0.00028939  0.52504767  0.73301504     0.00180
C1334       C  0.02358639  0.52044080  0.76310565    -0.08280
C1335       C  0.04898013  0.54268016  0.76883308     0.62100
H1336       H  0.04042612  0.49120778  0.81204411     0.12790
H1337       H  0.95910634  0.50757728  0.70782437     0.12800
C1338       C  0.94987177  0.45673217  0.75262936     0.62330
F1339       F  0.06627400  0.53632597  0.80410607    -0.22840
F1340       F  0.03730121  0.57105752  0.77358976    -0.20170
F1341       F  0.06763826  0.54205130  0.73427306    -0.19840
F1342       F  0.93214112  0.45755704  0.78813446    -0.19900
F1343       F  0.96093157  0.42817517  0.74723246    -0.20220
F1344       F  0.93177372  0.46346325  0.71829098    -0.22890
C1345       C  0.03209686  0.51290655  0.52285041    -0.05730
C1346       C  0.00596356  0.51570865  0.54678701     0.00200
C1347       C  0.98079556  0.49740654  0.53869032    -0.08370
C1348       C  0.98185301  0.47841530  0.00425917    -0.05750
C1349       C  0.00731800  0.47657341  0.97863072     0.00180
C1350       C  0.03348063  0.49328330  0.98876044    -0.08280
C1351       C  0.06253509  0.49098414  0.96403643     0.62100
H1352       H  0.05117053  0.52693272  0.53038673     0.12790
H1353       H  0.96238346  0.46486120  0.99708512     0.12800
C1354       C  0.95291770  0.49753408  0.56613199     0.62330
F1355       F  0.08433813  0.51034444  0.97889492    -0.22840
F1356       F  0.05723244  0.49793616  0.92221588    -0.20170
F1357       F  0.07397663  0.46237057  0.96737599    -0.19840
F1358       F  0.93618349  0.52292210  0.55813234    -0.19900
F1359       F  0.96110335  0.49663464  0.60817836    -0.20220
F1360       F  0.93473629  0.47310579  0.55839188    -0.22890
C1361       C  0.09189315  0.32939595  0.99175506    -0.05730
C1362       C  0.11076932  0.31503011  0.96304895     0.00200
C1363       C  0.10957781  0.32417117  0.91996403    -0.08370
C1364       C  0.08754569  0.34467646  0.90695710    -0.05750
C1365       C  0.06776822  0.35791053  0.93516436     0.00180
C1366       C  0.07085432  0.35126970  0.97892418    -0.08280
C1367       C  0.05235458  0.36687826  0.51232217     0.62100
H1368       H  0.09360671  0.32314107  0.52458992     0.12790
H1369       H  0.08552807  0.35052852  0.87399774     0.12800
C1370       C  0.13091372  0.31256943  0.88689631     0.62330
F1371       F  0.05949156  0.35701420  0.55248410    -0.22840
F1372       F  0.02209917  0.36157224  0.50570054    -0.20170
F1373       F  0.05785390  0.39722586  0.51094712    -0.19840
F1374       F  0.12384142  0.28331321  0.87822846    -0.19900
F1375       F  0.16027567  0.31500183  0.90100858    -0.20220
F1376       F  0.12881939  0.32841566  0.84950081    -0.22890
C1377       C  0.78335060  0.26508691  0.64408954    -0.05730
C1378       C  0.78061416  0.24742921  0.60800048     0.00200
C1379       C  0.75309628  0.23213765  0.60047700    -0.08370
C1380       C  0.72959926  0.23472205  0.62973275    -0.05750
C1381       C  0.73233719  0.25207562  0.66606056     0.00180
C1382       C  0.75993598  0.26735376  0.67376856    -0.08280
C1383       C  0.76533558  0.28518849  0.71365846     0.62100
H1384       H  0.80426108  0.27693679  0.64903366     0.12790
H1385       H  0.70870423  0.22291829  0.62451247     0.12800
C1386       C  0.74799912  0.21359890  0.56123394     0.62330
F1387       F  0.79466865  0.29528050  0.71666351    -0.22840
F1388       F  0.74657944  0.30976045  0.71416964    -0.20170
F1389       F  0.75988851  0.26759314  0.74855405    -0.19840
F1390       F  0.76593890  0.18845758  0.56274500    -0.19900
F1391       F  0.75494393  0.23008400  0.52596744    -0.20220
F1392       F  0.71839483  0.20453382  0.55717276    -0.22890
C1393       C  0.78159203  0.22748720  0.88430405    -0.05730
C1394       C  0.77348490  0.24418305  0.91965644     0.00200
C1395       C  0.74506612  0.25820109  0.92157939    -0.08370
C1396       C  0.72580733  0.25496298  0.88728637    -0.05750
C1397       C  0.73450807  0.23981145  0.85096740     0.00180
C1398       C  0.76280202  0.22550092  0.84903488    -0.08280
C1399       C  0.77531675  0.20928407  0.81106606     0.62100
H1400       H  0.80352284  0.21688694  0.88353398     0.12790
H1401       H  0.70367822  0.26514446  0.88847667     0.12800
C1402       C  0.73294189  0.27575753  0.95858319     0.62330
F1403       F  0.80178023  0.22290428  0.79891305    -0.22840
F1404       F  0.78153870  0.18004071  0.82208559    -0.20170
F1405       F  0.75625988  0.20906504  0.77671370    -0.19840
F1406       F  0.75430335  0.28251579  0.98862183    -0.19900
F1407       F  0.71034773  0.25941138  0.97744667    -0.20220
F1408       F  0.72086523  0.30240292  0.94422736    -0.22890
C1409       C  0.92666683  0.19515827  0.95101972    -0.05730
C1410       C  0.89869132  0.18494891  0.96491613     0.00200
C1411       C  0.89016756  0.15507478  0.95778238    -0.08370
C1412       C  0.91029719  0.13605177  0.93699833    -0.05750
C1413       C  0.93831695  0.14615683  0.92251321     0.00180
C1414       C  0.94683181  0.17624068  0.92988025    -0.08280
C1415       C  0.97729618  0.18820373  0.91679593     0.62100
H1416       H  0.93234984  0.21833237  0.95629867     0.12790
H1417       H  0.90423156  0.11296897  0.93184092     0.12800
C1418       C  0.86001146  0.14343210  0.97262207     0.62330
F1419       F  0.98148172  0.21741793  0.92937735    -0.22840
F1420       F  0.97974191  0.18738675  0.87350257    -0.20170
F1421       F  0.99987533  0.17114442  0.93490184    -0.19840
F1422       F  0.83704637  0.15822259  0.95172884    -0.19900
F1423       F  0.85723531  0.14815717  0.51541086    -0.20220
F1424       F  0.85681662  0.11320279  0.96521836    -0.22890
C1425       C  0.90747505  0.36411359  0.93446240    -0.05730
C1426       C  0.93577611  0.35358381  0.92192936     0.00200
C1427       C  0.94425639  0.32387880  0.93218297    -0.08370
C1428       C  0.92390493  0.30582711  0.95447491    -0.05750
C1429       C  0.89549682  0.31625971  0.96639294     0.00180
C1430       C  0.88697432  0.34589580  0.95621499    -0.08280
C1431       C  0.85677889  0.35858582  0.96916689     0.62100
H1432       H  0.90152271  0.38696854  0.92704515     0.12790
H1433       H  0.92980182  0.28297797  0.96204169     0.12800
C1434       C  0.97490060  0.31139944  0.92098032     0.62330
F1435       F  0.85520983  0.38907518  0.96246418    -0.22840
F1436       F  0.85212883  0.35332615  0.51151505    -0.20170
F1437       F  0.83403245  0.34541286  0.94601786    -0.19840
F1438       F  0.99721863  0.32900195  0.93822190    -0.19900
F1439       F  0.97796912  0.31068157  0.87777140    -0.20220
F1440       F  0.97893131  0.28267890  0.93612025    -0.22890
loop_ 
_geom_bond_atom_site_label_1 
_geom_bond_atom_site_label_2 
_geom_bond_distance 
_geom_bond_site_symmetry_2 
_ccdc_geom_bond_type 
In1          O12   2.284       .  S
In1           O6   2.257       .  S
In1           O8   2.272       .  S
In1          O13   2.258       .  S
In1         O723   2.209   1_554  S
In1         O724   2.216   1_554  S
In1         O729   2.228   1_554  S
In1         O730   2.223   1_554  S
C2           O10   1.256       .  A
C2          O728   1.267       .  A
C2          C690   1.473       .  S
O3         In721   2.209       .  S
O3           C11   1.260       .  A
O4         In721   2.216       .  S
O4           C11   1.260       .  A
C5           O12   1.260       .  A
C5            O6   1.256       .  A
C5          C658   1.494       .  S
C7           O13   1.266   1_556  A
C7          O729   1.257       .  A
C7         C1429   1.482       .  S
O8          C722   1.267   1_554  A
O9         In721   2.228       .  S
O9          C727   1.257       .  A
O10        In721   2.223       .  S
C11         C674   1.449       .  S
In14         O16   2.211       .  S
In14         O17   2.197   1_455  S
In14         O25   2.273   1_455  S
In14         O19   2.265       .  S
In14         O21   2.263       .  S
In14         O22   2.224   1_455  S
In14         O23   2.219       .  S
In14         O26   2.259   1_455  S
C15          O21   1.272       .  A
C15          O23   1.253       .  A
C15         C645   1.491       .  S
O16          C24   1.257       .  A
O17          C24   1.262   1_655  A
C18          O25   1.259       .  A
C18          O19   1.260   1_655  A
C18         C610   1.500       .  S
C20          O22   1.259       .  A
C20          O26   1.266       .  A
C20         C706   1.486       .  S
C24         C629   1.468       .  S
In27         O29   2.227   1_455  S
In27         O30   2.192       .  S
In27         O38   2.272       .  S
In27         O32   2.273   1_455  S
In27         O34   2.270   1_455  S
In27         O35   2.221       .  S
In27         O36   2.238   1_455  S
In27         O39   2.263       .  S
C28          O34   1.263       .  A
C28          O36   1.256       .  A
C28         C693   1.487       .  S
O29          C37   1.262       .  A
O30          C37   1.259   1_455  A
C31          O38   1.258       .  A
C31          O32   1.259   1_455  A
C31         C562   1.507       .  S
C33          O35   1.255       .  A
C33          O39   1.268       .  A
C33         C594   1.487       .  S
C37         C581   1.451       .  S
In40         O51   2.254       .  S
In40         O45   2.294       .  S
In40         O47   2.298       .  S
In40         O52   2.288       .  S
In40        O762   2.234   1_554  S
In40        O763   2.201   1_554  S
In40        O768   2.213   1_554  S
In40        O769   2.224   1_554  S
C41          O49   1.251       .  A
C41         O767   1.269       .  A
C41         C642   1.499       .  S
O42        In760   2.234       .  S
O42          C50   1.262       .  A
O43        In760   2.201       .  S
O43          C50   1.259       .  A
C44          O51   1.255       .  A
C44          O45   1.264       .  A
C44         C530   1.493       .  S
C46          O52   1.266   1_556  A
C46         O768   1.252       .  A
C46        C1317   1.484       .  S
O47         C761   1.269   1_554  A
O48        In760   2.213       .  S
O48         C766   1.252       .  A
O49        In760   2.224       .  S
C50         C546   1.450       .  S
In53         O55   2.226       .  S
In53         O56   2.180   1_455  S
In53         O64   2.269   1_455  S
In53         O58   2.272       .  S
In53         O60   2.264       .  S
In53         O61   2.214   1_455  S
In53         O62   2.231       .  S
In53         O65   2.273   1_455  S
C54          O60   1.269       .  A
C54          O62   1.255       .  A
C54         C501   1.496       .  S
O55          C63   1.263       .  A
O56          C63   1.257   1_655  A
C57          O64   1.258   1_455  A
C57          O58   1.259       .  A
C57         C613   1.502       .  S
C59          O61   1.253       .  A
C59          O65   1.268       .  A
C59         C517   1.493       .  S
C63         C626   1.456       .  S
In66         O68   2.226       .  S
In66         O69   2.204       .  S
In66         O73   2.280       .  S
In66         O74   2.222       .  S
In66         O75   2.219       .  S
In66        O797   2.275   1_554  S
In66        O791   2.270   1_554  S
In66        O798   2.263       .  S
C67          O73   1.269       .  A
C67          O75   1.251       .  A
C67         C485   1.495       .  S
O68          C76   1.260       .  A
O69          C76   1.259       .  A
C70          O77   1.260       .  A
C70          O71   1.260       .  A
C70         C453   1.490       .  S
O71        In786   2.270       .  S
C72          O74   1.259       .  A
C72         O798   1.267       .  A
C72         C514   1.475       .  S
C76         C466   1.450       .  S
O77        In786   2.275       .  S
O78        In786   2.263       .  S
O78         C792   1.267       .  A
In79         O81   2.228       .  S
In79         O82   2.197       .  S
In79         O86   2.297       .  S
In79         O87   2.230       .  S
In79         O88   2.223       .  S
In79        O810   2.258   1_554  S
In79        O804   2.300   1_554  S
In79        O811   2.273       .  S
C80          O86   1.270       .  A
C80          O88   1.252       .  A
C80         C498   1.499       .  S
O81          C89   1.263       .  A
O82          C89   1.260       .  A
C83          O90   1.255       .  A
C83          O84   1.265       .  A
C83         C402   1.500       .  S
O84        In799   2.300       .  S
C85          O87   1.256       .  A
C85         O811   1.264       .  A
C85         C434   1.488       .  S
C89         C418   1.451       .  S
O90        In799   2.258       .  S
O91        In799   2.273       .  S
O91         C805   1.264       .  A
In92         O94   2.221   1_455  S
In92         O95   2.202       .  S
In92        O103   2.271       .  S
In92         O97   2.268   1_455  S
In92         O99   2.275   1_455  S
In92        O100   2.229       .  S
In92        O101   2.218   1_455  S
In92        O104   2.259       .  S
C93          O99   1.270       .  A
C93         O101   1.253       .  A
C93         C482   1.491       .  S
O94         C102   1.259       .  A
O95         C102   1.259   1_455  A
C96         O103   1.258       .  A
C96          O97   1.261   1_455  A
C96         C565   1.503       .  S
C98         O100   1.258       .  A
C98         O104   1.266       .  A
C98         C437   1.483       .  S
C102        C578   1.443       .  S
In105       O107   2.222       .  S
In105       O108   2.202       .  S
In105       O116   2.270       .  S
In105       O110   2.281       .  S
In105       O112   2.277       .  S
In105       O113   2.225       .  S
In105       O114   2.235       .  S
In105       O117   2.275       .  S
C106        O112   1.267       .  A
C106        O114   1.253       .  A
C106        C389   1.482       .  S
O107        C115   1.262       .  A
O108        C115   1.260       .  A
C109        O116   1.258       .  A
C109        O110   1.263       .  A
C109        C338   1.511       .  S
C111        O113   1.257       .  A
C111        O117   1.267       .  A
C111        C373   1.480       .  S
C115        C354   1.449       .  S
In118       O120   2.231       .  S
In118       O121   2.196       .  S
In118       O129   2.260       .  S
In118       O123   2.278       .  S
In118       O125   2.277       .  S
In118       O126   2.240       .  S
In118       O127   2.220       .  S
In118       O130   2.262       .  S
C119        O125   1.270       .  A
C119        O127   1.253       .  A
C119        C386   1.493       .  S
O120        C128   1.261       .  A
O121        C128   1.260       .  A
C122        O129   1.259       .  A
C122        O123   1.263       .  A
C122        C450   1.502       .  S
C124        O126   1.257       .  A
C124        O130   1.262       .  A
C124        C325   1.480       .  S
C128        C469   1.451       .  S
In131       O133   2.225       .  S
In131       O134   2.194       .  S
In131       O142   2.289       .  S
In131       O136   2.271       .  S
In131       O138   2.281       .  S
In131       O139   2.227       .  S
In131       O140   2.226       .  S
In131       O143   2.267       .  S
C132        O138   1.269       .  A
C132        O140   1.252       .  A
C132        C309   1.498       .  S
O133        C141   1.262       .  A
O134        C141   1.257       .  A
C135        O142   1.259       .  A
C135        O136   1.258       .  A
C135        C274   1.502       .  S
C137        O139   1.260       .  A
C137        O143   1.266       .  A
C137        C322   1.497       .  S
C141        C293   1.473       .  S
In144       O146   2.233       .  S
In144       O147   2.194       .  S
In144       O155   2.259       .  S
In144       O149   2.308       .  S
In144       O151   2.288       .  S
In144       O152   2.229       .  S
In144       O153   2.228       .  S
In144       O156   2.263       .  S
C145        O151   1.270       .  A
C145        O153   1.255       .  A
C145        C306   1.494       .  S
O146        C154   1.262       .  A
O147        C154   1.258       .  A
C148        O155   1.256       .  A
C148        O149   1.266       .  A
C148        C405   1.502       .  S
C150        O152   1.254       .  A
C150        O156   1.265       .  A
C150        C370   1.485       .  S
C154        C421   1.447       .  S
In157       O159   2.233       .  S
In157       O160   2.175       .  S
In157       O168   2.269       .  S
In157       O162   2.281       .  S
In157       O164   2.278       .  S
In157       O165   2.209       .  S
In157       O166   2.227       .  S
In157       O169   2.285       .  S
C158        O164   1.268       .  A
C158        O166   1.255       .  A
C158        C258   1.482       .  S
O159        C167   1.262       .  A
O160        C167   1.260       .  A
C161        O168   1.260       .  A
C161        O162   1.263       .  A
C161        C277   1.504       .  S
C163        O165   1.253       .  A
C163        O169   1.268       .  A
C163        C242   1.477       .  S
C167        C290   1.469       .  S
In170       O172   2.221       .  S
In170       O173   2.179       .  S
In170       O181   2.255       .  S
In170       O175   2.276       .  S
In170       O177   2.261       .  S
In170       O178   2.222       .  S
In170       O179   2.235       .  S
In170       O182   2.283       .  S
C171        O177   1.268       .  A
C171        O179   1.256       .  A
C171        C226   1.487       .  S
O172        C180   1.262       .  A
O173        C180   1.261       .  A
C174        O181   1.255       .  A
C174        O175   1.264       .  A
C174        C661   1.496       .  S
C176        O178   1.256       .  A
C176        O182   1.266       .  A
C176        C245   1.496       .  S
C180        C677   1.448       .  S
In183       O185   2.230       .  S
In183       O186   2.207       .  S
In183       O194   2.274       .  S
In183       O188   2.276       .  S
In183       O190   2.287       .  S
In183       O191   2.243       .  S
In183       O192   2.228       .  S
In183       O195   2.268       .  S
C184        O190   1.268       .  A
C184        O192   1.254       .  A
C184        C229   1.480       .  S
O185        C193   1.260       .  A
O186        C193   1.256       .  A
C187        O194   1.260       .  A
C187        O188   1.261       .  A
C187        C341   1.505       .  S
C189        O191   1.257       .  A
C189        O195   1.265       .  A
C189        C213   1.482       .  S
C193        C357   1.450       .  S
In196       O198   2.235       .  S
In196       O199   2.194       .  S
In196       O207   2.262       .  S
In196       O201   2.300       .  S
In196       O203   2.297       .  S
In196       O204   2.236       .  S
In196       O205   2.221       .  S
In196       O208   2.258       .  S
C197        O203   1.268       .  A
C197        O205   1.252       .  A
C197        C261   1.492       .  S
O198        C206   1.264       .  A
O199        C206   1.258       .  A
C200        O207   1.256       .  A
C200        O201   1.265       .  A
C200        C533   1.503       .  S
C202        O204   1.254       .  A
C202        O208   1.265       .  A
C202        C210   1.495       .  S
C206        C549   1.450       .  S
C209        C210   1.402       .  A
C209        C214   1.402       .  A
C209        H216   1.082       .  S
C210        C211   1.431       .  A
C211        C212   1.415       .  A
C211        C218   1.520       .  S
C212        C213   1.398       .  A
C212        H217   1.083       .  S
C213        C214   1.414       .  A
C214        C215   1.510       .  S
C215        F219   1.385       .  S
C215        F220   1.382       .  S
C215        F221   1.382       .  S
C218        F222   1.383       .  S
C218        F223   1.383       .  S
C218        F224   1.385       .  S
C225        C226   1.411       .  A
C225        C230   1.413       .  A
C225        H232   1.083       .  S
C226        C227   1.416       .  A
C227        C228   1.402       .  A
C227        C234   1.516       .  S
C228        C229   1.399       .  A
C228        H233   1.074       .  S
C229        C230   1.412       .  A
C230        C231   1.515       .  S
C231        F235   1.384       .  S
C231        F236   1.384       .  S
C231        F237   1.382       .  S
C234        F238   1.382       .  S
C234        F239   1.383       .  S
C234        F240   1.384       .  S
C241        C242   1.404       .  A
C241        C246   1.409       .  A
C241        H248   1.084       .  S
C242        C243   1.407       .  A
C243        C244   1.408       .  A
C243        C250   1.517       .  S
C244        C245   1.415       .  A
C244        H249   1.082       .  S
C245        C246   1.422       .  A
C246        C247   1.520       .  S
C247        F251   1.385       .  S
C247        F252   1.379       .  S
C247        F253   1.383       .  S
C250        F254   1.382       .  S
C250        F255   1.384       .  S
C250        F256   1.385       .  S
C257        C258   1.408       .  A
C257        C262   1.412       .  A
C257        H264   1.083       .  S
C258        C259   1.411       .  A
C259        C260   1.407       .  A
C259        C266   1.518       .  S
C260        C261   1.411       .  A
C260        H265   1.081       .  S
C261        C262   1.417       .  A
C262        C263   1.518       .  S
C263        F267   1.385       .  S
C263        F268   1.383       .  S
C263        F269   1.384       .  S
C266        F270   1.384       .  S
C266        F271   1.382       .  S
C266        F272   1.385       .  S
C273        C274   1.408       .  A
C273        C278   1.415       .  A
C273        H280   1.083       .  S
C274        C275   1.419   1_554  A
C275        C996   1.417       .  A
C275       C1002   1.518       .  S
C276        C277   1.411       .  A
C276        C995   1.417       .  A
C276        H281   1.083       .  S
C277        C998   1.419       .  A
C278        C997   1.419   1_554  A
C278        C279   1.518       .  S
C279        F283   1.385       .  S
C279        F284   1.384       .  S
C279        F285   1.382       .  S
C282        C995   1.518       .  S
C282        F287   1.383       .  S
C282        F288   1.385       .  S
C282       F1006   1.382       .  S
F286       C1002   1.382   1_554  S
C289        C290   1.401       .  A
C289        C294   1.394       .  A
C289        H296   1.082       .  S
C290        C291   1.416       .  A
C291        C292   1.402       .  A
C291        C298   1.521       .  S
C292        C293   1.407       .  A
C292        H297   1.082       .  S
C293        C294   1.420       .  A
C294        C295   1.524       .  S
C295        F299   1.385       .  S
C295        F300   1.383       .  S
C295        F301   1.384       .  S
C298        F302   1.383       .  S
C298        F303   1.383       .  S
C298        F304   1.385       .  S
C305        C306   1.401       .  A
C305        C310   1.413       .  A
C305        H312   1.083       .  S
C306        C307   1.424       .  A
C307        C308   1.408       .  A
C307        C314   1.519       .  S
C308        C309   1.402       .  A
C308        H313   1.082       .  S
C309        C310   1.430       .  A
C310        C311   1.522       .  S
C311        F315   1.385       .  S
C311        F316   1.383       .  S
C311        F317   1.383       .  S
C314        F318   1.381       .  S
C314        F319   1.379       .  S
C314        F320   1.385       .  S
C321        C322   1.412       .  A
C321        C326   1.409       .  A
C321        H328   1.082       .  S
C322        C323   1.423       .  A
C323        C324   1.411       .  A
C323        C330   1.520       .  S
C324        C325   1.403       .  A
C324        H329   1.083       .  S
C325        C326   1.411       .  A
C326        C327   1.518       .  S
C327        F331   1.385       .  S
C327        F332   1.384       .  S
C327        F333   1.382       .  S
C330        F334   1.383       .  S
C330        F335   1.383       .  S
C330        F336   1.385       .  S
C337        C338   1.408       .  A
C337       C1062   1.415   1_564  A
C337        H344   1.082       .  S
C338        C339   1.427       .  A
C339       C1060   1.417   1_564  A
C339        C346   1.520       .  S
C340        C341   1.407       .  A
C340       C1059   1.417   1_545  A
C340        H345   1.083       .  S
C341        C342   1.423       .  A
C342       C1057   1.415   1_545  A
C342        C343   1.520       .  S
C343        F347   1.384   1_545  S
C343        F348   1.383       .  S
C343        F349   1.384       .  S
C346        F350   1.383       .  S
C346        F351   1.383       .  S
C346        F352   1.385       .  S
C353        C354   1.396   1_545  A
C353        C358   1.399       .  A
C353        H360   1.084       .  S
C354        C355   1.413       .  A
C355        C356   1.396       .  A
C355        C362   1.516       .  S
C356        C357   1.396   1_565  A
C356        H361   1.084       .  S
C357        C358   1.415       .  A
C358        C359   1.518       .  S
C359        F363   1.385       .  S
C359        F364   1.383       .  S
C359        F365   1.382       .  S
C362        F366   1.381       .  S
C362        F367   1.382       .  S
C362        F368   1.385       .  S
C369        C370   1.401       .  A
C369        C374   1.405       .  A
C369        H376   1.084       .  S
C370        C371   1.419       .  A
C371        C372   1.410       .  A
C371        C378   1.518       .  S
C372        C373   1.405       .  A
C372        H377   1.083       .  S
C373        C374   1.422       .  A
C374        C375   1.519       .  S
C375        F379   1.382       .  S
C375        F380   1.375       .  S
C375        F381   1.383       .  S
C378        F382   1.383       .  S
C378        F383   1.383       .  S
C378        F384   1.385       .  S
C385        C386   1.400       .  A
C385        C390   1.405       .  A
C385        H392   1.085       .  S
C386        C387   1.428       .  A
C387        C388   1.410       .  A
C387        C394   1.522       .  S
C388        C389   1.399       .  A
C388        H393   1.083       .  S
C389        C390   1.426       .  A
C390        C391   1.522       .  S
C391        F395   1.384       .  S
C391        F396   1.379       .  S
C391        F397   1.382       .  S
C394        F398   1.383       .  S
C394        F399   1.384       .  S
C394        F400   1.385       .  S
C401        C402   1.398       .  A
C401        C406   1.412       .  A
C401        H408   1.083       .  S
C402        C403   1.426       .  A
C403        C404   1.417       .  A
C403        C410   1.515       .  S
C404        C405   1.401       .  A
C404        H409   1.083       .  S
C405        C406   1.424       .  A
C406        C407   1.511       .  S
C407        F411   1.385       .  S
C407        F412   1.383       .  S
C407        F413   1.382       .  S
C410        F414   1.380       .  S
C410        F415   1.382       .  S
C410        F416   1.385       .  S
C417        C418   1.401       .  A
C417        C422   1.398       .  A
C417        H424   1.079       .  S
C418        C419   1.418       .  A
C419        C420   1.390       .  A
C419        C426   1.521       .  S
C420        C421   1.391       .  A
C420        H425   1.076       .  S
C421        C422   1.408       .  A
C422        C423   1.514       .  S
C423        F427   1.385       .  S
C423        F428   1.383       .  S
C423        F429   1.383       .  S
C426        F430   1.384       .  S
C426        F431   1.376       .  S
C426        F432   1.383       .  S
C433        C434   1.407       .  A
C433        C438   1.409       .  A
C433        H440   1.083       .  S
C434        C435   1.421       .  A
C435        C436   1.410       .  A
C435        C442   1.519       .  S
C436        C437   1.403       .  A
C436        H441   1.083       .  S
C437        C438   1.416       .  A
C438        C439   1.519       .  S
C439        F443   1.385       .  S
C439        F444   1.383       .  S
C439        F445   1.382       .  S
C442        F446   1.382       .  S
C442        F447   1.383   1_554  S
C442        F448   1.385       .  S
C449        C450   1.413       .  A
C449        C454   1.414       .  A
C449        H456   1.082       .  S
C450        C451   1.421       .  A
C451        C452   1.413       .  A
C451        C458   1.518       .  S
C452        C453   1.404       .  A
C452        H457   1.081       .  S
C453        C454   1.412       .  A
C454        C455   1.516       .  S
C455        F459   1.384       .  S
C455        F460   1.382       .  S
C455        F461   1.384       .  S
C458        F462   1.384       .  S
C458        F463   1.382       .  S
C458        F464   1.384       .  S
C465        C466   1.401       .  A
C465        C470   1.399       .  A
C465        H472   1.084       .  S
C466        C467   1.408       .  A
C467        C468   1.396       .  A
C467        C474   1.516       .  S
C468        C469   1.400       .  A
C468        H473   1.084       .  S
C469        C470   1.411       .  A
C470        C471   1.518       .  S
C471        F475   1.385       .  S
C471        F476   1.383       .  S
C471        F477   1.383       .  S
C474        F478   1.384       .  S
C474        F479   1.382       .  S
C474        F480   1.385       .  S
C481        C482   1.400       .  A
C481        C486   1.409       .  A
C481        H488   1.082       .  S
C482        C483   1.426       .  A
C483        C484   1.408       .  A
C483        C490   1.522       .  S
C484        C485   1.402       .  A
C484       H1209   1.082   1_554  S
C485        C486   1.430       .  A
C486        C487   1.524       .  S
C487        F491   1.385       .  S
C487        F492   1.380       .  S
C487        F493   1.383       .  S
H489       C1204   1.082       .  S
C490        F495   1.383       .  S
C490       F1214   1.383       .  S
C490       F1216   1.385   1_554  S
F494       C1210   1.383       .  S
F496       C1210   1.385       .  S
C497        C498   1.403       .  A
C497        C502   1.413       .  A
C497        H504   1.082   1_554  S
C498        C499   1.429       .  A
C499        C500   1.406       .  A
C499        C506   1.520       .  S
C500        C501   1.399       .  A
C500        H505   1.082       .  S
C501        C502   1.428       .  A
C502        C503   1.521       .  S
C503        F508   1.383       .  S
C503        F509   1.384       .  S
C503       F1227   1.385   1_554  S
C506        F510   1.382       .  S
C506        F511   1.381       .  S
C506        F512   1.385       .  S
F507       C1223   1.385       .  S
C513        C514   1.395       .  A
C513        C518   1.410       .  A
C513        H520   1.083       .  S
C514        C515   1.415       .  A
C515        C516   1.405       .  A
C515        C522   1.516       .  S
C516        C517   1.403       .  A
C516        H521   1.083       .  S
C517        C518   1.432       .  A
C518        C519   1.521       .  S
C519        F524   1.383       .  S
C519        F525   1.384       .  S
C519       F1243   1.385   1_554  S
C522        F526   1.383       .  S
C522        F527   1.383       .  S
C522        F528   1.384       .  S
F523       C1239   1.385       .  S
C529        C530   1.396       .  A
C529        C534   1.412       .  A
C529        H536   1.083       .  S
C530        C531   1.422       .  A
C531        C532   1.413       .  A
C531        C538   1.513       .  S
C532        C533   1.401       .  A
C532        H537   1.083       .  S
C533        C534   1.427       .  A
C534        C535   1.510       .  S
C535        F539   1.385       .  S
C535        F540   1.376       .  S
C535        F541   1.382       .  S
C538        F542   1.382       .  S
C538        F543   1.382       .  S
C538        F544   1.384       .  S
C545        C546   1.400       .  A
C545        C550   1.399       .  A
C545        H552   1.077       .  S
C546        C547   1.417       .  A
C547        C548   1.387       .  A
C547        C554   1.517       .  S
C548        C549   1.388       .  A
C548        H553   1.077       .  S
C549        C550   1.412       .  A
C550        C551   1.518       .  S
C551        F555   1.384       .  S
C551        F556   1.381       .  S
C551        F557   1.382       .  S
C554        F558   1.383       .  S
C554        F559   1.372       .  S
C554        F560   1.384       .  S
C561        C562   1.410       .  A
C561        C566   1.415   1_545  A
C561        H568   1.082       .  S
C562        C563   1.425   1_455  A
C563        C564   1.413   1_545  A
C563        C570   1.520       .  S
C564        C565   1.407   1_655  A
C564        H569   1.082       .  S
C565        C566   1.421       .  A
C566        C567   1.519       .  S
C567        F571   1.385       .  S
C567        F572   1.383       .  S
C567        F573   1.383       .  S
C570        F574   1.383       .  S
C570        F575   1.383       .  S
C570        F576   1.385       .  S
C577        C578   1.399       .  A
C577       C1302   1.398   1_554  A
C577       H1304   1.083   1_554  S
C578        C579   1.406   1_565  A
C579        C580   1.396       .  A
C579        C586   1.518   1_655  S
C580       C1301   1.403   1_554  A
C580        H585   1.084   1_655  S
C581        C582   1.412   1_545  A
C581       C1300   1.403       .  A
C582       C1297   1.398       .  A
C582        C583   1.519       .  S
C583        F587   1.385       .  S
C583        F588   1.384       .  S
C583        F589   1.383       .  S
H584       C1297   1.083       .  S
C586        F590   1.384       .  S
C586        F591   1.383   1_455  S
C586        F592   1.384       .  S
C593        C594   1.398       .  A
C593        C598   1.404       .  A
C593        H600   1.083       .  S
C594        C595   1.428       .  A
C595        C596   1.411       .  A
C595        C602   1.521       .  S
C596        C597   1.399       .  A
C596       H1321   1.083       .  S
C597        C766   1.485       .  S
C597        C598   1.423       .  A
C598        C599   1.518       .  S
C599        F603   1.385       .  S
C599        F604   1.382       .  S
C599        F605   1.381       .  S
H601       C1316   1.083   1_554  S
C602        F606   1.383       .  S
C602        F607   1.384       .  S
C602       F1328   1.385       .  S
F608       C1322   1.385       .  S
C609        C610   1.408   1_455  A
C609        C614   1.413       .  A
C609        H616   1.083       .  S
C610        C611   1.420       .  A
C611        C612   1.415       .  A
C611        C618   1.519       .  S
C612        C613   1.410   1_655  A
C612        H617   1.083       .  S
C613        C614   1.421       .  A
C614        C615   1.519       .  S
C615        F619   1.385       .  S
C615        F620   1.384       .  S
C615        F621   1.382       .  S
C618        F622   1.383       .  S
C618        F623   1.384       .  S
C618        F624   1.385       .  S
C625        C626   1.400       .  A
C625       C1350   1.401   1_554  A
C625        H632   1.083       .  S
C626        C627   1.412   1_455  A
C627       C1348   1.392       .  A
C627        C634   1.522       .  S
C628        C629   1.403   1_655  A
C628       C1347   1.392       .  A
C628        H633   1.083       .  S
C629        C630   1.421       .  A
C630       C1345   1.401       .  A
C630        C631   1.522       .  S
C631        F635   1.385       .  S
C631        F636   1.383       .  S
C631        F637   1.384       .  S
C634        F638   1.382       .  S
C634        F639   1.384       .  S
C634        F640   1.385       .  S
C641        C642   1.403       .  A
C641        C646   1.413       .  A
C641       H1368   1.082       .  S
C642        C643   1.429       .  A
C643        C644   1.403       .  A
C643        C650   1.515       .  S
C644        C645   1.395       .  A
C644        H649   1.083       .  S
C645        C646   1.428       .  A
C646       C1367   1.522       .  S
C647       C1366   1.522   1_554  S
C647        F651   1.385       .  S
C647        F652   1.383       .  S
C647        F653   1.384       .  S
H648       C1361   1.082   1_554  S
C650        F654   1.378       .  S
C650        F655   1.383       .  S
C650        F656   1.385       .  S
C657        C658   1.402       .  A
C657        C662   1.415       .  A
C657        H664   1.083       .  S
C658        C659   1.424       .  A
C659        C660   1.410       .  A
C659        C666   1.519       .  S
C660        C661   1.401       .  A
C660        H665   1.083       .  S
C661        C662   1.427       .  A
C662        C663   1.521       .  S
C663        F667   1.385       .  S
C663        F668   1.382       .  S
C663        F669   1.382       .  S
C666        F670   1.382       .  S
C666        F671   1.378       .  S
C666        F672   1.385       .  S
C673        C674   1.403       .  A
C673        C678   1.398       .  A
C673        H680   1.086       .  S
C674        C675   1.414       .  A
C675        C676   1.391       .  A
C675        C682   1.521       .  S
C676        C677   1.400       .  A
C676        H681   1.086       .  S
C677        C678   1.415       .  A
C678        C679   1.521       .  S
C679        F683   1.384       .  S
C679        F684   1.383       .  S
C679        F685   1.379       .  S
C682        F686   1.378       .  S
C682        F687   1.383       .  S
C682        F688   1.384       .  S
C689        C690   1.401       .  A
C689        C694   1.410       .  A
C689        H696   1.083       .  S
C690        C691   1.412       .  A
C691        C692   1.407       .  A
C691        C698   1.518       .  S
C692        C693   1.407       .  A
C692        H697   1.083       .  S
C693        C694   1.422       .  A
C694        C695   1.519       .  S
C695        F699   1.384       .  S
C695        F700   1.383       .  S
C695        F701   1.383       .  S
C698        F702   1.383       .  S
C698        F704   1.384       .  S
C698       F1423   1.383       .  S
F703       C1418   1.383   1_554  S
C705        C706   1.406       .  A
C705        C710   1.408       .  A
C705        H712   1.083       .  S
C706        C707   1.420       .  A
C707        C708   1.408       .  A
C707        C714   1.519       .  S
C708        C709   1.403       .  A
C708        H713   1.083       .  S
C709        C727   1.482       .  S
C709        C710   1.417       .  A
C710        C711   1.519       .  S
C711        F715   1.385       .  S
C711        F717   1.382       .  S
C711       F1436   1.384       .  S
C714        F718   1.382       .  S
C714        F719   1.382       .  S
C714        F720   1.384       .  S
F716       C1431   1.384   1_554  S
In721       O732   2.284       .  S
In721       O726   2.257       .  S
In721       O728   2.271       .  S
In721       O733   2.258       .  S
C722        O730   1.256       .  A
C722       C1410   1.473       .  S
O723        C731   1.260       .  A
O724        C731   1.260       .  A
C725        O732   1.260       .  A
C725        O726   1.256       .  A
C725       C1378   1.494       .  S
C727        O733   1.266       .  A
C731       C1394   1.449       .  S
In734       O736   2.211       .  S
In734       O737   2.197   1_455  S
In734       O745   2.273   1_455  S
In734       O739   2.265       .  S
In734       O741   2.263       .  S
In734       O742   2.224   1_455  S
In734       O743   2.219       .  S
In734       O746   2.259   1_455  S
C735        O741   1.272       .  A
C735        O743   1.253       .  A
C735       C1365   1.491       .  S
O736        C744   1.257       .  A
O737        C744   1.262   1_655  A
C738        O745   1.259       .  A
C738        O739   1.260   1_655  A
C738       C1330   1.500       .  S
C740        O742   1.259       .  A
C740        O746   1.266       .  A
C740       C1426   1.486       .  S
C744       C1349   1.468       .  S
In747       O749   2.227   1_455  S
In747       O750   2.192       .  S
In747       O758   2.272       .  S
In747       O752   2.273   1_455  S
In747       O754   2.270   1_455  S
In747       O755   2.221       .  S
In747       O756   2.238   1_455  S
In747       O759   2.262       .  S
C748        O754   1.263       .  A
C748        O756   1.256       .  A
C748       C1413   1.487       .  S
O749        C757   1.262       .  A
O750        C757   1.259   1_455  A
C751        O758   1.258       .  A
C751        O752   1.259   1_455  A
C751       C1282   1.507       .  S
C753        O755   1.255       .  A
C753        O759   1.268       .  A
C753       C1314   1.488       .  S
C757       C1301   1.451       .  S
In760       O771   2.254       .  S
In760       O765   2.294       .  S
In760       O767   2.298       .  S
In760       O772   2.288       .  S
C761        O769   1.251       .  A
C761       C1362   1.499       .  S
O762        C770   1.262       .  A
O763        C770   1.258       .  A
C764        O771   1.255       .  A
C764        O765   1.264       .  A
C764       C1250   1.493       .  S
C766        O772   1.266       .  A
C770       C1266   1.450       .  S
In773       O775   2.226       .  S
In773       O776   2.180   1_455  S
In773       O784   2.269   1_455  S
In773       O778   2.272       .  S
In773       O780   2.264       .  S
In773       O781   2.214   1_455  S
In773       O782   2.231       .  S
In773       O785   2.273   1_455  S
C774        O780   1.269       .  A
C774        O782   1.255       .  A
C774       C1221   1.496       .  S
O775        C783   1.263       .  A
O776        C783   1.257   1_655  A
C777        O784   1.258   1_455  A
C777        O778   1.259       .  A
C777       C1333   1.502       .  S
C779        O781   1.253       .  A
C779        O785   1.268       .  A
C779       C1237   1.493       .  S
C783       C1346   1.457       .  S
In786       O788   2.226       .  S
In786       O789   2.204       .  S
In786       O793   2.280       .  S
In786       O794   2.222       .  S
In786       O795   2.219       .  S
C787        O793   1.269       .  A
C787        O795   1.251       .  A
C787       C1205   1.495       .  S
O788        C796   1.260       .  A
O789        C796   1.259       .  A
C790        O797   1.260       .  A
C790        O791   1.260       .  A
C790       C1173   1.490       .  S
C792        O794   1.259       .  A
C792       C1234   1.475       .  S
C796       C1186   1.450       .  S
In799       O801   2.228       .  S
In799       O802   2.197       .  S
In799       O806   2.297       .  S
In799       O807   2.230       .  S
In799       O808   2.223       .  S
C800        O806   1.270       .  A
C800        O808   1.252       .  A
C800       C1218   1.499       .  S
O801        C809   1.263       .  A
O802        C809   1.260       .  A
C803        O810   1.255       .  A
C803        O804   1.265       .  A
C803       C1122   1.500       .  S
C805        O807   1.256       .  A
C805       C1154   1.488       .  S
C809       C1138   1.451       .  S
In812       O814   2.221   1_455  S
In812       O815   2.202       .  S
In812       O823   2.271       .  S
In812       O817   2.268   1_455  S
In812       O819   2.275   1_455  S
In812       O820   2.229       .  S
In812       O821   2.218   1_455  S
In812       O824   2.259       .  S
C813        O819   1.270       .  A
C813        O821   1.253       .  A
C813       C1202   1.491       .  S
O814        C822   1.259       .  A
O815        C822   1.259   1_455  A
C816        O823   1.258       .  A
C816        O817   1.261   1_455  A
C816       C1285   1.503       .  S
C818        O820   1.258       .  A
C818        O824   1.266       .  A
C818       C1157   1.483       .  S
C822       C1298   1.444       .  S
In825       O827   2.222       .  S
In825       O828   2.202       .  S
In825       O836   2.270       .  S
In825       O830   2.281       .  S
In825       O832   2.277       .  S
In825       O833   2.225       .  S
In825       O834   2.235       .  S
In825       O837   2.275       .  S
C826        O832   1.267       .  A
C826        O834   1.253       .  A
C826       C1109   1.482       .  S
O827        C835   1.262       .  A
O828        C835   1.260       .  A
C829        O836   1.258       .  A
C829        O830   1.263       .  A
C829       C1058   1.511       .  S
C831        O833   1.257       .  A
C831        O837   1.267       .  A
C831       C1093   1.480       .  S
C835       C1074   1.449       .  S
In838       O840   2.231       .  S
In838       O841   2.196       .  S
In838       O849   2.260       .  S
In838       O843   2.278       .  S
In838       O845   2.277       .  S
In838       O846   2.240       .  S
In838       O847   2.220       .  S
In838       O850   2.262       .  S
C839        O845   1.270       .  A
C839        O847   1.253       .  A
C839       C1106   1.493       .  S
O840        C848   1.261       .  A
O841        C848   1.260       .  A
C842        O849   1.259       .  A
C842        O843   1.263       .  A
C842       C1170   1.502       .  S
C844        O846   1.257       .  A
C844        O850   1.262       .  A
C844       C1045   1.480       .  S
C848       C1189   1.451       .  S
In851       O853   2.225       .  S
In851       O854   2.194       .  S
In851       O862   2.289       .  S
In851       O856   2.271       .  S
In851       O858   2.281       .  S
In851       O859   2.227       .  S
In851       O860   2.226       .  S
In851       O863   2.267       .  S
C852        O858   1.269       .  A
C852        O860   1.252       .  A
C852       C1029   1.498       .  S
O853        C861   1.262       .  A
O854        C861   1.257       .  A
C855        O862   1.259       .  A
C855        O856   1.258       .  A
C855        C994   1.502       .  S
C857        O859   1.260       .  A
C857        O863   1.266       .  A
C857       C1042   1.497       .  S
C861       C1013   1.473       .  S
In864       O866   2.233       .  S
In864       O867   2.194       .  S
In864       O875   2.259       .  S
In864       O869   2.308       .  S
In864       O871   2.288       .  S
In864       O872   2.229       .  S
In864       O873   2.228       .  S
In864       O876   2.263       .  S
C865        O871   1.270       .  A
C865        O873   1.255       .  A
C865       C1026   1.494       .  S
O866        C874   1.262       .  A
O867        C874   1.258       .  A
C868        O875   1.256       .  A
C868        O869   1.266       .  A
C868       C1125   1.502       .  S
C870        O872   1.254       .  A
C870        O876   1.265       .  A
C870       C1090   1.485       .  S
C874       C1141   1.447       .  S
In877       O879   2.233       .  S
In877       O880   2.175       .  S
In877       O888   2.269       .  S
In877       O882   2.281       .  S
In877       O884   2.278       .  S
In877       O885   2.209       .  S
In877       O886   2.227       .  S
In877       O889   2.285       .  S
C878        O884   1.268       .  A
C878        O886   1.255       .  A
C878        C978   1.482       .  S
O879        C887   1.262       .  A
O880        C887   1.260       .  A
C881        O888   1.260       .  A
C881        O882   1.263       .  A
C881        C997   1.504       .  S
C883        O885   1.253       .  A
C883        O889   1.268       .  A
C883        C962   1.477       .  S
C887       C1010   1.469       .  S
In890       O892   2.221       .  S
In890       O893   2.179       .  S
In890       O901   2.255       .  S
In890       O895   2.276       .  S
In890       O897   2.261       .  S
In890       O898   2.222       .  S
In890       O899   2.235       .  S
In890       O902   2.283       .  S
C891        O897   1.268       .  A
C891        O899   1.256       .  A
C891        C946   1.487       .  S
O892        C900   1.262       .  A
O893        C900   1.261       .  A
C894        O901   1.255       .  A
C894        O895   1.264       .  A
C894       C1381   1.496       .  S
C896        O898   1.256       .  A
C896        O902   1.266       .  A
C896        C965   1.496       .  S
C900       C1397   1.449       .  S
In903       O905   2.230       .  S
In903       O906   2.207       .  S
In903       O914   2.274       .  S
In903       O908   2.276       .  S
In903       O910   2.287       .  S
In903       O911   2.243       .  S
In903       O912   2.228       .  S
In903       O915   2.268       .  S
C904        O910   1.268       .  A
C904        O912   1.254       .  A
C904        C949   1.480       .  S
O905        C913   1.260       .  A
O906        C913   1.256       .  A
C907        O914   1.260       .  A
C907        O908   1.261       .  A
C907       C1061   1.505       .  S
C909        O911   1.257       .  A
C909        O915   1.265       .  A
C909        C933   1.482       .  S
C913       C1077   1.450       .  S
In916       O918   2.235       .  S
In916       O919   2.194       .  S
In916       O927   2.262       .  S
In916       O921   2.300       .  S
In916       O923   2.297       .  S
In916       O924   2.236       .  S
In916       O925   2.221       .  S
In916       O928   2.258       .  S
C917        O923   1.268       .  A
C917        O925   1.252       .  A
C917        C981   1.492       .  S
O918        C926   1.264       .  A
O919        C926   1.258       .  A
C920        O927   1.256       .  A
C920        O921   1.265       .  A
C920       C1253   1.503       .  S
C922        O924   1.253       .  A
C922        O928   1.265       .  A
C922        C930   1.495       .  S
C926       C1269   1.450       .  S
C929        C930   1.402       .  A
C929        C934   1.402       .  A
C929        H936   1.082       .  S
C930        C931   1.431       .  A
C931        C932   1.415       .  A
C931        C938   1.520       .  S
C932        C933   1.398       .  A
C932        H937   1.083       .  S
C933        C934   1.414       .  A
C934        C935   1.510       .  S
C935        F939   1.385       .  S
C935        F940   1.382       .  S
C935        F941   1.382       .  S
C938        F942   1.383       .  S
C938        F943   1.383       .  S
C938        F944   1.385       .  S
C945        C946   1.411       .  A
C945        C950   1.413       .  A
C945        H952   1.083       .  S
C946        C947   1.416       .  A
C947        C948   1.402       .  A
C947        C954   1.516       .  S
C948        C949   1.399       .  A
C948        H953   1.074       .  S
C949        C950   1.412       .  A
C950        C951   1.515       .  S
C951        F955   1.384       .  S
C951        F956   1.384       .  S
C951        F957   1.382       .  S
C954        F958   1.382       .  S
C954        F959   1.383       .  S
C954        F960   1.384       .  S
C961        C962   1.404       .  A
C961        C966   1.409       .  A
C961        H968   1.084       .  S
C962        C963   1.407       .  A
C963        C964   1.408       .  A
C963        C970   1.517       .  S
C964        C965   1.415       .  A
C964        H969   1.082       .  S
C965        C966   1.422       .  A
C966        C967   1.520       .  S
C967        F971   1.385       .  S
C967        F972   1.379       .  S
C967        F973   1.383       .  S
C970        F974   1.382       .  S
C970        F975   1.384       .  S
C970        F976   1.385       .  S
C977        C978   1.408       .  A
C977        C982   1.412       .  A
C977        H984   1.083       .  S
C978        C979   1.411       .  A
C979        C980   1.407       .  A
C979        C986   1.518       .  S
C980        C981   1.411       .  A
C980        H985   1.081       .  S
C981        C982   1.417       .  A
C982        C983   1.518       .  S
C983        F987   1.385       .  S
C983        F988   1.383       .  S
C983        F989   1.384       .  S
C986        F990   1.384       .  S
C986        F991   1.382       .  S
C986        F992   1.385       .  S
C993        C994   1.408       .  A
C993        C998   1.415       .  A
C993       H1000   1.083       .  S
C994        C995   1.419       .  A
C996        C997   1.411       .  A
C996       H1001   1.083       .  S
C998        C999   1.518       .  S
C999       F1003   1.385       .  S
C999       F1004   1.384       .  S
C999       F1005   1.382       .  S
C1002      F1007   1.383       .  S
C1002      F1008   1.385       .  S
C1009      C1010   1.401       .  A
C1009      C1014   1.394       .  A
C1009      H1016   1.082       .  S
C1010      C1011   1.416       .  A
C1011      C1012   1.402       .  A
C1011      C1018   1.521       .  S
C1012      C1013   1.407       .  A
C1012      H1017   1.082       .  S
C1013      C1014   1.420       .  A
C1014      C1015   1.524       .  S
C1015      F1019   1.385       .  S
C1015      F1020   1.383       .  S
C1015      F1021   1.384       .  S
C1018      F1022   1.383       .  S
C1018      F1023   1.383       .  S
C1018      F1024   1.385       .  S
C1025      C1026   1.401       .  A
C1025      C1030   1.413       .  A
C1025      H1032   1.083       .  S
C1026      C1027   1.424       .  A
C1027      C1028   1.408       .  A
C1027      C1034   1.519       .  S
C1028      C1029   1.402       .  A
C1028      H1033   1.082       .  S
C1029      C1030   1.430       .  A
C1030      C1031   1.522       .  S
C1031      F1035   1.385       .  S
C1031      F1036   1.383       .  S
C1031      F1037   1.383       .  S
C1034      F1038   1.381       .  S
C1034      F1039   1.379       .  S
C1034      F1040   1.385       .  S
C1041      C1042   1.412       .  A
C1041      C1046   1.409       .  A
C1041      H1048   1.082       .  S
C1042      C1043   1.423       .  A
C1043      C1044   1.411       .  A
C1043      C1050   1.520       .  S
C1044      C1045   1.403       .  A
C1044      H1049   1.083       .  S
C1045      C1046   1.411       .  A
C1046      C1047   1.518       .  S
C1047      F1051   1.385       .  S
C1047      F1052   1.384       .  S
C1047      F1053   1.382       .  S
C1050      F1054   1.383       .  S
C1050      F1055   1.383       .  S
C1050      F1056   1.385       .  S
C1057      C1058   1.408       .  A
C1057      H1064   1.082       .  S
C1058      C1059   1.427       .  A
C1059      C1066   1.520       .  S
C1060      C1061   1.407       .  A
C1060      H1065   1.083       .  S
C1061      C1062   1.423       .  A
C1062      C1063   1.520       .  S
C1063      F1067   1.384   1_545  S
C1063      F1068   1.383       .  S
C1063      F1069   1.384       .  S
C1066      F1070   1.383       .  S
C1066      F1071   1.383       .  S
C1066      F1072   1.385       .  S
C1073      C1074   1.396   1_545  A
C1073      C1078   1.399       .  A
C1073      H1080   1.084       .  S
C1074      C1075   1.413       .  A
C1075      C1076   1.396       .  A
C1075      C1082   1.516       .  S
C1076      C1077   1.396   1_565  A
C1076      H1081   1.084       .  S
C1077      C1078   1.415       .  A
C1078      C1079   1.518       .  S
C1079      F1083   1.385       .  S
C1079      F1084   1.383       .  S
C1079      F1085   1.382       .  S
C1082      F1086   1.381       .  S
C1082      F1087   1.382       .  S
C1082      F1088   1.385       .  S
C1089      C1090   1.401       .  A
C1089      C1094   1.405       .  A
C1089      H1096   1.084       .  S
C1090      C1091   1.419       .  A
C1091      C1092   1.410       .  A
C1091      C1098   1.518       .  S
C1092      C1093   1.405       .  A
C1092      H1097   1.083       .  S
C1093      C1094   1.422       .  A
C1094      C1095   1.519       .  S
C1095      F1099   1.382       .  S
C1095      F1100   1.375       .  S
C1095      F1101   1.383       .  S
C1098      F1102   1.383       .  S
C1098      F1103   1.383       .  S
C1098      F1104   1.385       .  S
C1105      C1106   1.400       .  A
C1105      C1110   1.405       .  A
C1105      H1112   1.085       .  S
C1106      C1107   1.428       .  A
C1107      C1108   1.410       .  A
C1107      C1114   1.522       .  S
C1108      C1109   1.399       .  A
C1108      H1113   1.083       .  S
C1109      C1110   1.426       .  A
C1110      C1111   1.522       .  S
C1111      F1115   1.384       .  S
C1111      F1116   1.379       .  S
C1111      F1117   1.382       .  S
C1114      F1118   1.383       .  S
C1114      F1119   1.384       .  S
C1114      F1120   1.385       .  S
C1121      C1122   1.398       .  A
C1121      C1126   1.412       .  A
C1121      H1128   1.083       .  S
C1122      C1123   1.426       .  A
C1123      C1124   1.417       .  A
C1123      C1130   1.515       .  S
C1124      C1125   1.401       .  A
C1124      H1129   1.083       .  S
C1125      C1126   1.424       .  A
C1126      C1127   1.511       .  S
C1127      F1131   1.385       .  S
C1127      F1132   1.383       .  S
C1127      F1133   1.382       .  S
C1130      F1134   1.380       .  S
C1130      F1135   1.382       .  S
C1130      F1136   1.385       .  S
C1137      C1138   1.401       .  A
C1137      C1142   1.398       .  A
C1137      H1144   1.079       .  S
C1138      C1139   1.418       .  A
C1139      C1140   1.390       .  A
C1139      C1146   1.521       .  S
C1140      C1141   1.391       .  A
C1140      H1145   1.076       .  S
C1141      C1142   1.408       .  A
C1142      C1143   1.514       .  S
C1143      F1147   1.385       .  S
C1143      F1148   1.383       .  S
C1143      F1149   1.383       .  S
C1146      F1150   1.384       .  S
C1146      F1151   1.376       .  S
C1146      F1152   1.383       .  S
C1153      C1154   1.407       .  A
C1153      C1158   1.409       .  A
C1153      H1160   1.083       .  S
C1154      C1155   1.421       .  A
C1155      C1156   1.410       .  A
C1155      C1162   1.519       .  S
C1156      C1157   1.403       .  A
C1156      H1161   1.083       .  S
C1157      C1158   1.416       .  A
C1158      C1159   1.519       .  S
C1159      F1163   1.385       .  S
C1159      F1164   1.383       .  S
C1159      F1165   1.382       .  S
C1162      F1166   1.382       .  S
C1162      F1167   1.383       .  S
C1162      F1168   1.385       .  S
C1169      C1170   1.413       .  A
C1169      C1174   1.414       .  A
C1169      H1176   1.082       .  S
C1170      C1171   1.421       .  A
C1171      C1172   1.413       .  A
C1171      C1178   1.518       .  S
C1172      C1173   1.404       .  A
C1172      H1177   1.081       .  S
C1173      C1174   1.412       .  A
C1174      C1175   1.516       .  S
C1175      F1179   1.384       .  S
C1175      F1180   1.382       .  S
C1175      F1181   1.384       .  S
C1178      F1182   1.384       .  S
C1178      F1183   1.382       .  S
C1178      F1184   1.384       .  S
C1185      C1186   1.401       .  A
C1185      C1190   1.399       .  A
C1185      H1192   1.084       .  S
C1186      C1187   1.408       .  A
C1187      C1188   1.396       .  A
C1187      C1194   1.516       .  S
C1188      C1189   1.400       .  A
C1188      H1193   1.084       .  S
C1189      C1190   1.411       .  A
C1190      C1191   1.518       .  S
C1191      F1195   1.385       .  S
C1191      F1196   1.383       .  S
C1191      F1197   1.383       .  S
C1194      F1198   1.384       .  S
C1194      F1199   1.382       .  S
C1194      F1200   1.385       .  S
C1201      C1202   1.400       .  A
C1201      C1206   1.409       .  A
C1201      H1208   1.082       .  S
C1202      C1203   1.426       .  A
C1203      C1204   1.408       .  A
C1203      C1210   1.522       .  S
C1204      C1205   1.402       .  A
C1205      C1206   1.430       .  A
C1206      C1207   1.524       .  S
C1207      F1211   1.385       .  S
C1207      F1212   1.380       .  S
C1207      F1213   1.383       .  S
C1210      F1215   1.383       .  S
C1217      C1218   1.403       .  A
C1217      C1222   1.413       .  A
C1217      H1224   1.082       .  S
C1218      C1219   1.429       .  A
C1219      C1220   1.406       .  A
C1219      C1226   1.520       .  S
C1220      C1221   1.399       .  A
C1220      H1225   1.082       .  S
C1221      C1222   1.428       .  A
C1222      C1223   1.521       .  S
C1223      F1228   1.383       .  S
C1223      F1229   1.384       .  S
C1226      F1230   1.382       .  S
C1226      F1231   1.381       .  S
C1226      F1232   1.385       .  S
C1233      C1234   1.395       .  A
C1233      C1238   1.410       .  A
C1233      H1240   1.083       .  S
C1234      C1235   1.415       .  A
C1235      C1236   1.405       .  A
C1235      C1242   1.516       .  S
C1236      C1237   1.403       .  A
C1236      H1241   1.083       .  S
C1237      C1238   1.432       .  A
C1238      C1239   1.521       .  S
C1239      F1244   1.383       .  S
C1239      F1245   1.384       .  S
C1242      F1246   1.383       .  S
C1242      F1247   1.383       .  S
C1242      F1248   1.384       .  S
C1249      C1250   1.396       .  A
C1249      C1254   1.413       .  A
C1249      H1256   1.083       .  S
C1250      C1251   1.422       .  A
C1251      C1252   1.413       .  A
C1251      C1258   1.513       .  S
C1252      C1253   1.401       .  A
C1252      H1257   1.083       .  S
C1253      C1254   1.427       .  A
C1254      C1255   1.510       .  S
C1255      F1259   1.385       .  S
C1255      F1260   1.376       .  S
C1255      F1261   1.382       .  S
C1258      F1262   1.382       .  S
C1258      F1263   1.382       .  S
C1258      F1264   1.384       .  S
C1265      C1266   1.400       .  A
C1265      C1270   1.399       .  A
C1265      H1272   1.077       .  S
C1266      C1267   1.417       .  A
C1267      C1268   1.387       .  A
C1267      C1274   1.517       .  S
C1268      C1269   1.388       .  A
C1268      H1273   1.077       .  S
C1269      C1270   1.412       .  A
C1270      C1271   1.518       .  S
C1271      F1275   1.384       .  S
C1271      F1276   1.381       .  S
C1271      F1277   1.382       .  S
C1274      F1278   1.383       .  S
C1274      F1279   1.372       .  S
C1274      F1280   1.384       .  S
C1281      C1282   1.410       .  A
C1281      C1286   1.415   1_545  A
C1281      H1288   1.082       .  S
C1282      C1283   1.425   1_455  A
C1283      C1284   1.413   1_545  A
C1283      C1290   1.520       .  S
C1284      C1285   1.407   1_655  A
C1284      H1289   1.082       .  S
C1285      C1286   1.421       .  A
C1286      C1287   1.519       .  S
C1287      F1291   1.385       .  S
C1287      F1292   1.383       .  S
C1287      F1293   1.383       .  S
C1290      F1294   1.383       .  S
C1290      F1295   1.383       .  S
C1290      F1296   1.385       .  S
C1297      C1298   1.399       .  A
C1298      C1299   1.406   1_565  A
C1299      C1300   1.396       .  A
C1299      C1306   1.518   1_655  S
C1300      H1305   1.084   1_655  S
C1301      C1302   1.412   1_545  A
C1302      C1303   1.519       .  S
C1303      F1307   1.385       .  S
C1303      F1308   1.384       .  S
C1303      F1309   1.383       .  S
C1306      F1310   1.384       .  S
C1306      F1311   1.383   1_455  S
C1306      F1312   1.384       .  S
C1313      C1314   1.398       .  A
C1313      C1318   1.403       .  A
C1313      H1320   1.083       .  S
C1314      C1315   1.428       .  A
C1315      C1316   1.411       .  A
C1315      C1322   1.521   1_556  S
C1316      C1317   1.399       .  A
C1317      C1318   1.423       .  A
C1318      C1319   1.518       .  S
C1319      F1323   1.385       .  S
C1319      F1324   1.382       .  S
C1319      F1325   1.381       .  S
C1322      F1326   1.383   1_554  S
C1322      F1327   1.384       .  S
C1329      C1330   1.408   1_455  A
C1329      C1334   1.413       .  A
C1329      H1336   1.083       .  S
C1330      C1331   1.420       .  A
C1331      C1332   1.415       .  A
C1331      C1338   1.519       .  S
C1332      C1333   1.410   1_655  A
C1332      H1337   1.083       .  S
C1333      C1334   1.421       .  A
C1334      C1335   1.519       .  S
C1335      F1339   1.385       .  S
C1335      F1340   1.384       .  S
C1335      F1341   1.382       .  S
C1338      F1342   1.383       .  S
C1338      F1343   1.384       .  S
C1338      F1344   1.385       .  S
C1345      C1346   1.400       .  A
C1345      H1352   1.083       .  S
C1346      C1347   1.412   1_455  A
C1347      C1354   1.522       .  S
C1348      C1349   1.403   1_654  A
C1348      H1353   1.083   1_554  S
C1349      C1350   1.421       .  A
C1350      C1351   1.522       .  S
C1351      F1355   1.385       .  S
C1351      F1356   1.383       .  S
C1351      F1357   1.384       .  S
C1354      F1358   1.382       .  S
C1354      F1359   1.384       .  S
C1354      F1360   1.385       .  S
C1361      C1362   1.403       .  A
C1361      C1366   1.413       .  A
C1362      C1363   1.429       .  A
C1363      C1364   1.403       .  A
C1363      C1370   1.515       .  S
C1364      C1365   1.395       .  A
C1364      H1369   1.083       .  S
C1365      C1366   1.428       .  A
C1367      F1371   1.385       .  S
C1367      F1372   1.383       .  S
C1367      F1373   1.384       .  S
C1370      F1374   1.378       .  S
C1370      F1375   1.383       .  S
C1370      F1376   1.385       .  S
C1377      C1378   1.402       .  A
C1377      C1382   1.415       .  A
C1377      H1384   1.083       .  S
C1378      C1379   1.424       .  A
C1379      C1380   1.410       .  A
C1379      C1386   1.519       .  S
C1380      C1381   1.401       .  A
C1380      H1385   1.083       .  S
C1381      C1382   1.427       .  A
C1382      C1383   1.521       .  S
C1383      F1387   1.385       .  S
C1383      F1388   1.382       .  S
C1383      F1389   1.382       .  S
C1386      F1390   1.382       .  S
C1386      F1391   1.378       .  S
C1386      F1392   1.385       .  S
C1393      C1394   1.403       .  A
C1393      C1398   1.398       .  A
C1393      H1400   1.086       .  S
C1394      C1395   1.414       .  A
C1395      C1396   1.391       .  A
C1395      C1402   1.521       .  S
C1396      C1397   1.400       .  A
C1396      H1401   1.086       .  S
C1397      C1398   1.415       .  A
C1398      C1399   1.521       .  S
C1399      F1403   1.384       .  S
C1399      F1404   1.383       .  S
C1399      F1405   1.379       .  S
C1402      F1406   1.378       .  S
C1402      F1407   1.383       .  S
C1402      F1408   1.384       .  S
C1409      C1410   1.401       .  A
C1409      C1414   1.410       .  A
C1409      H1416   1.083       .  S
C1410      C1411   1.412       .  A
C1411      C1412   1.407       .  A
C1411      C1418   1.518       .  S
C1412      C1413   1.407       .  A
C1412      H1417   1.083       .  S
C1413      C1414   1.422       .  A
C1414      C1415   1.519       .  S
C1415      F1419   1.384       .  S
C1415      F1420   1.383       .  S
C1415      F1421   1.383       .  S
C1418      F1422   1.383       .  S
C1418      F1424   1.384       .  S
C1425      C1426   1.406       .  A
C1425      C1430   1.408       .  A
C1425      H1432   1.083       .  S
C1426      C1427   1.420       .  A
C1427      C1428   1.408       .  A
C1427      C1434   1.519       .  S
C1428      C1429   1.403       .  A
C1428      H1433   1.083       .  S
C1429      C1430   1.417       .  A
C1430      C1431   1.519       .  S
C1431      F1435   1.385       .  S
C1431      F1437   1.382       .  S
C1434      F1438   1.382       .  S
C1434      F1439   1.382       .  S
C1434      F1440   1.384       .  S
