geometry optimzed in LAMMPS
_audit_creation_date              2020-12-01 
_audit_creation_method            'lammps2cif' 
_symmetry_space_group_name_H-M    'P1' 
_symmetry_Int_Tables_number       1 
_symmetry_cell_setting            triclinic 
loop_ 
_symmetry_equiv_pos_as_xyz 
  x,y,z 
_cell_length_a                    34.276787 
_cell_length_b                    34.32947032674247 
_cell_length_c                    66.54365390491736 
_cell_angle_alpha                 89.97614943274758 
_cell_angle_beta                  90.1029881791054 
_cell_angle_gamma                 120.07194124799567 
loop_ 
_atom_site_label 
_atom_site_type_symbol 
_atom_site_fract_x 
_atom_site_fract_y 
_atom_site_fract_z 
_atom_site_charge 
In1        In  0.65200566  0.78505554  0.43772846     1.36900
C2          C  0.66956514  0.85785477  0.45888640     0.77200
O3          O  0.67556612  0.77463511  0.46744535    -0.61300
O4          O  0.69916474  0.75708338  0.44141638    -0.52200
C5          C  0.57267003  0.70893772  0.43362190     0.69800
O6          O  0.57560892  0.74587010  0.43849635    -0.47000
C7          C  0.67139177  0.82272340  0.40123864     0.74500
O8          O  0.63331601  0.82072292  0.46103486    -0.58900
O9          O  0.69837671  0.81450776  0.41079067    -0.49000
O10         O  0.69570578  0.85758460  0.44565924    -0.55300
C11         C  0.69989143  0.76006584  0.46038423     0.84700
O12         O  0.61014646  0.71115291  0.43098202    -0.57200
O13         O  0.63393901  0.80878320  0.40978807    -0.60500
In14       In  0.85516717  0.20028195  0.57163392     1.36900
C15         C  0.80404182  0.13023967  0.54765890     0.77200
O16         O  0.90619204  0.24271147  0.54857389    -0.61300
O17         O  0.92147511  0.20165308  0.56701051    -0.52200
C18         C  0.85198197  0.27553512  0.57741969     0.69800
O19         O  0.81958049  0.24059388  0.56969151    -0.47000
C20         C  0.83001546  0.16393073  0.60813315     0.74500
O21         O  0.80650928  0.16798591  0.54540497    -0.58900
O22         O  0.87084902  0.18394627  0.60267332    -0.49000
O23         O  0.82789516  0.12910111  0.56177748    -0.55300
C24         C  0.93383286  0.22994779  0.55287101     0.84700
O25         O  0.88535957  0.27155880  0.58239693    -0.57200
O26         O  0.80333020  0.16478023  0.59532785    -0.60500
In27       In  0.86027583  0.64980439  0.60320986     1.36900
C28         C  0.80753099  0.67245749  0.62387729     0.77200
O29         O  0.90109373  0.65643806  0.63070802    -0.61300
O30         O  0.93216858  0.70576742  0.60789955    -0.52200
C31         C  0.85446793  0.57018711  0.59707440     0.69800
O32         O  0.82186834  0.57359999  0.60387182    -0.47000
C33         C  0.84421075  0.66869517  0.56638922     0.74500
O34         O  0.80584373  0.63518932  0.62652378    -0.58900
O35         O  0.88104411  0.69330867  0.57541423    -0.49000
O36         O  0.83591211  0.69722554  0.61098308    -0.55300
C37         C  0.93593959  0.69164212  0.62491165     0.84700
O38         O  0.88919478  0.60729161  0.59303272    -0.57200
O39         O  0.81735270  0.63322752  0.57568627    -0.60500
In40       In  0.65860585  0.86252506  0.73870725     1.36900
C41         C  0.67919107  0.81797306  0.71170836     0.77200
O42         O  0.65915941  0.91610755  0.71914028    -0.61300
O43         O  0.71946694  0.93270340  0.73468494    -0.52200
C44         C  0.57546997  0.84834387  0.74482166     0.69800
O45         O  0.58711382  0.83700604  0.72887041    -0.47000
C46         C  0.67738044  0.83387776  0.77293018     0.74500
O47         O  0.63957025  0.80302838  0.71810410    -0.58900
O48         O  0.69298510  0.87533628  0.76940480    -0.49000
O49         O  0.70757692  0.85561396  0.71890190    -0.55300
C50         C  0.70001965  0.94473929  0.72202959     0.84700
O51         O  0.60637032  0.86656680  0.75785013    -0.57200
O52         O  0.65247449  0.80829060  0.75916193    -0.60500
In53       In  0.20823093  0.85227004  0.76731121     1.36900
C54         C  0.13187751  0.80344646  0.78781299     0.77200
O55         O  0.24689413  0.89319720  0.79396003    -0.61300
O56         O  0.22161310  0.92283437  0.77356633    -0.52200
C57         C  0.28159248  0.84541378  0.76229115     0.69800
O58         O  0.24906658  0.81872548  0.77335362    -0.47000
C59         C  0.17425018  0.83190365  0.73032178     0.74500
O60         O  0.16279722  0.79356562  0.78753979    -0.58900
O61         O  0.19022597  0.87106490  0.73756204    -0.49000
O62         O  0.14035303  0.83769006  0.77763360    -0.55300
C63         C  0.24251147  0.92659621  0.78977099     0.84700
O64         O  0.27618814  0.87531603  0.75375197    -0.57200
O65         O  0.17778265  0.80438880  0.74165977    -0.60500
In66       In  0.79230687  0.64434058  0.90430245     1.36900
C67         C  0.86102361  0.66918099  0.87892647     0.77200
O68         O  0.74426109  0.64797754  0.88229127    -0.61300
O69         O  0.78478236  0.70601057  0.89979962    -0.52200
C70         C  0.72126601  0.56186230  0.90926796     0.69800
O71         O  0.74876789  0.57198596  0.89490057    -0.47000
C72         C  0.83702197  0.65954762  0.93927293     0.74500
O73         O  0.83337738  0.62821581  0.88254707    -0.58900
O74         O  0.81109630  0.67512009  0.93579382    -0.49000
O75         O  0.85306154  0.69635998  0.88822092    -0.55300
C76         C  0.75642664  0.68857119  0.88570257     0.84700
O77         O  0.73036854  0.59399379  0.92120777    -0.57200
O78         O  0.83825577  0.63544572  0.92528805    -0.60500
In79       In  0.13408757  0.32765508  0.10126874     1.36900
C80         C  0.17605233  0.30105216  0.12710721     0.77200
O81         O  0.08325687  0.32611248  0.12260259    -0.61300
O82         O  0.06392638  0.26716279  0.10538649    -0.52200
C83         C  0.14369709  0.40889516  0.09561438     0.69800
O84         O  0.16204698  0.40030732  0.11016471    -0.47000
C85         C  0.16384847  0.31567005  0.06597242     0.74500
O86         O  0.19061451  0.34220733  0.12334049    -0.58900
O87         O  0.12217498  0.29840630  0.06960533    -0.49000
O88         O  0.14073977  0.27444637  0.11763352    -0.55300
C89         C  0.05367028  0.28588113  0.11912760     0.84700
O90         O  0.12117296  0.37604748  0.08395108    -0.57200
O91         O  0.18917765  0.33861753  0.08025140    -0.60500
In92       In  0.34449540  0.12476088  0.24119369     1.36900
C93         C  0.31458797  0.16938946  0.21931597     0.77200
O94         O  0.34008761  0.09174421  0.21187472    -0.61300
O95         O  0.29533194  0.05064741  0.23486609    -0.52200
C96         C  0.42483891  0.13122820  0.24688451     0.69800
O97         O  0.42062366  0.16234119  0.23885206    -0.47000
C98         C  0.32800628  0.14858235  0.27712727     0.74500
O99         O  0.35576445  0.18020266  0.21956206    -0.58900
O100        O  0.30530871  0.10853692  0.27064838    -0.49000
O101        O  0.28950903  0.13643292  0.23042378    -0.55300
C102        C  0.30858373  0.05326669  0.21684990     0.84700
O103        O  0.38813732  0.09763341  0.25244642    -0.57200
O104        O  0.35971831  0.17471500  0.26569410    -0.60500
In105      In  0.79654317  0.13075168  0.27001375     1.36900
C106        C  0.86727735  0.17601266  0.29401244     0.77200
O107        O  0.76044990  0.09055628  0.29708191    -0.61300
O108        O  0.78363828  0.06020502  0.27598529    -0.52200
C109        C  0.72242012  0.13629839  0.26349829     0.69800
O110        O  0.75814258  0.16871996  0.27067978    -0.47000
C111        C  0.83864686  0.15501068  0.23457680     0.74500
O112        O  0.83578026  0.18511852  0.29304862    -0.58900
O113        O  0.81273285  0.11404219  0.23904659    -0.49000
O114        O  0.86218493  0.14437233  0.28267875    -0.55300
C115        C  0.76427543  0.05689481  0.29262620     0.84700
O116        O  0.72528110  0.10203910  0.25916123    -0.57200
O117        O  0.84104644  0.18234965  0.24780594    -0.60500
In118      In  0.20681976  0.33278142  0.40983723     1.36900
C119        C  0.13344901  0.30675685  0.38758866     0.77200
O120        O  0.23753159  0.32613975  0.38162996    -0.61300
O121        O  0.22348680  0.27734660  0.40439165    -0.52200
C122        C  0.28101999  0.41265619  0.41452958     0.69800
O123        O  0.24511708  0.40838067  0.40714253    -0.47000
C124        C  0.16799029  0.31893840  0.44582414     0.74500
O125        O  0.16495287  0.34732332  0.38819184    -0.58900
O126        O  0.18778603  0.29790272  0.44039598    -0.49000
O127        O  0.13970723  0.28029805  0.39847296    -0.55300
C128        C  0.23805850  0.29102533  0.38678958     0.84700
O129        O  0.27867544  0.37617958  0.41976589    -0.57200
O130        O  0.17075140  0.34785353  0.43339351    -0.60500
In131      In  0.14254489  0.77792569  0.07100008     1.36900
C132        C  0.18537132  0.85104123  0.04807514     0.77200
O133        O  0.09719963  0.73956066  0.04536852    -0.61300
O134        O  0.06994565  0.76235135  0.06808261    -0.52200
C135        C  0.14911949  0.70413619  0.07608959     0.69800
O136        O  0.17151365  0.73347922  0.06289372    -0.47000
C137        C  0.17354834  0.82062545  0.10610239     0.74500
O138        O  0.19695498  0.82134653  0.04858809    -0.58900
O139        O  0.13195089  0.79973887  0.10173660    -0.49000
O140        O  0.15237367  0.84282680  0.05916067    -0.55300
C141        C  0.06399250  0.74262119  0.05135012     0.84700
O142        O  0.12422869  0.71316387  0.08678245    -0.57200
O143        O  0.19833493  0.81736008  0.09298644    -0.60500
In144      In  0.34859697  0.19939107  0.93609117     1.36900
C145        C  0.32082789  0.12960472  0.96106839     0.77200
O146        O  0.34652099  0.24703461  0.95857909    -0.61300
O147        O  0.29020211  0.21250949  0.93919947    -0.52200
C148        C  0.43151320  0.26782798  0.92872084     0.69800
O149        O  0.42284433  0.24126906  0.94338669    -0.47000
C150        C  0.33070968  0.15284603  0.90200593     0.74500
O151        O  0.36225009  0.15666602  0.95796379    -0.58900
O152        O  0.31609440  0.17961812  0.90517378    -0.49000
O153        O  0.29471169  0.13935941  0.95188982    -0.55300
C154        C  0.30762563  0.23925558  0.95382744     0.84700
O155        O  0.39773818  0.25908811  0.91791679    -0.57200
O156        O  0.35518099  0.15166823  0.91585834    -0.60500
C157        C  0.26150035  0.93806916  0.00970296    -0.11200
C158        C  0.24810766  0.97055644  0.01142125    -0.07300
C159        C  0.21494917  0.96371691  0.02561448    -0.10000
C160        C  0.19507759  0.92507951  0.03752696    -0.11600
C161        C  0.20790699  0.89227808  0.03563153    -0.01400
C162        C  0.24154705  0.89923787  0.02170278    -0.10500
C163        C  0.26748265  0.01099723  0.99822977     0.05900
H164        H  0.20441467  0.98839982  0.02756539     0.07800
H165        H  0.16947331  0.92086145  0.04823396     0.11300
H166        H  0.25198300  0.87444754  0.01991170     0.11600
H167        H  0.28667729  0.94221672  0.99877806     0.07900
C168        C  0.31392551  0.03562348  0.99395514    -0.11200
C169        C  0.33174120  0.07454454  0.98201900    -0.10500
C170        C  0.30332439  0.08923142  0.97403517    -0.01400
C171        C  0.25691576  0.06415186  0.97806438    -0.11600
C172        C  0.23925167  0.02564801  0.99001815    -0.10000
H173        H  0.33654491  0.02524962  0.00013838     0.07900
H174        H  0.36758519  0.09302579  0.97900026     0.11600
H175        H  0.23406335  0.07435021  0.97197996     0.11300
H176        H  0.20326659  0.00704550  0.99269902     0.07900
C177        C  0.97689659  0.20719899  0.32023619    -0.11200
C178        C  0.98064434  0.23956448  0.33414402     0.05900
C179        C  0.94789274  0.25271795  0.33427760    -0.10000
C180        C  0.91108437  0.23261972  0.32104219    -0.11600
C181        C  0.90690218  0.19949048  0.30739360    -0.01400
C182        C  0.94055999  0.18752911  0.30694194    -0.10500
C183        C  0.01792007  0.25783296  0.34889422     0.05900
H184        H  0.95017881  0.27754639  0.34497204     0.07800
H185        H  0.88560041  0.24242007  0.32169565     0.11300
H186        H  0.93846343  0.16234882  0.29650455     0.11600
H187        H  0.00205011  0.19690860  0.31977697     0.07900
C188        C  0.02445611  0.22815479  0.36101719    -0.11200
C189        C  0.06134533  0.24443242  0.37398452    -0.10500
C190        C  0.09282358  0.29069699  0.37490667    -0.01400
C191        C  0.08576810  0.32061726  0.36311590    -0.11600
C192        C  0.04833795  0.30427340  0.35027825    -0.10000
H193        H  0.00118516  0.19225286  0.36026552     0.07900
H194        H  0.06577007  0.22058501  0.38296410     0.11600
H195        H  0.10949491  0.35642215  0.36357860     0.11300
H196        H  0.04389686  0.32766358  0.34096051     0.07900
C197        C  0.26708017  0.15705052  0.32345828    -0.11200
C198        C  0.29484817  0.20261392  0.32881230     0.05900
C199        C  0.33527356  0.22831747  0.31817904    -0.10000
C200        C  0.34651531  0.20995228  0.30199395    -0.11600
C201        C  0.31786576  0.16515690  0.29597264    -0.01400
C202        C  0.27846554  0.13852239  0.30716347    -0.10500
C203        C  0.28076291  0.22467429  0.34430176     0.05900
H204        H  0.35799974  0.26317970  0.32213330     0.07800
H205        H  0.37726406  0.23136939  0.29383038     0.11300
H206        H  0.25564704  0.10390397  0.30286771     0.11600
H207        H  0.23563633  0.13633428  0.33126490     0.07900
C208        C  0.28813059  0.26824839  0.34078931    -0.11200
C209        C  0.27489001  0.28958563  0.35479526    -0.10500
C210        C  0.25385883  0.26812613  0.37281847    -0.01400
C211        C  0.24654777  0.22463472  0.37656472    -0.11600
C212        C  0.25965713  0.20297396  0.36237767    -0.10000
H213        H  0.30340864  0.28571775  0.32690825     0.07900
H214        H  0.28080334  0.32294497  0.35137434     0.11600
H215        H  0.23011513  0.20714810  0.39028927     0.11300
H216        H  0.25361133  0.16950001  0.36559092     0.07900
C217        C  0.59829182  0.09944875  0.26450901    -0.11200
C218        C  0.59709962  0.13670188  0.25621775     0.05900
C219        C  0.63857985  0.17449191  0.25055047    -0.10000
C220        C  0.67952856  0.17497911  0.25323744    -0.11600
C221        C  0.67991718  0.13717775  0.26100102    -0.01400
C222        C  0.63894377  0.09942988  0.26649463    -0.10500
C223        C  0.55291561  0.13578086  0.25355554     0.05900
H224        H  0.63965625  0.20362031  0.24374485     0.07800
H225        H  0.71075939  0.20441567  0.24877252     0.11300
H226        H  0.63847953  0.07008616  0.27279448     0.11600
H227        H  0.56794489  0.07020295  0.26977186     0.07900
C228        C  0.51216244  0.09460223  0.25121042    -0.11200
C229        C  0.47081910  0.09334190  0.24942559    -0.10500
C230        C  0.46889178  0.13319752  0.24923598    -0.01400
C231        C  0.50925492  0.17445975  0.25103557    -0.11600
C232        C  0.55062901  0.17574894  0.25346063    -0.10000
H233        H  0.51186641  0.06300207  0.25046960     0.07900
H234        H  0.44029206  0.06105960  0.24774159     0.11600
H235        H  0.50870611  0.20573178  0.25099913     0.11300
H236        H  0.58059054  0.20818390  0.25557857     0.07900
C237        C  0.23239379  0.93891001  0.19243814    -0.11200
C238        C  0.25094878  0.94561480  0.17298912     0.05900
C239        C  0.28900338  0.98747723  0.16852167    -0.10000
C240        C  0.30771443  0.02173109  0.18290951    -0.11600
C241        C  0.28905738  0.01529332  0.20226008    -0.01400
C242        C  0.25135469  0.97335324  0.20694768    -0.10500
C243        C  0.23049876  0.91001241  0.15710235     0.05900
H244        H  0.30380624  0.99427529  0.15366056     0.07800
H245        H  0.33664384  0.05364026  0.17874136     0.11300
H246        H  0.23621750  0.96737328  0.22172072     0.11600
H247        H  0.20332998  0.90699288  0.19645304     0.07900
C248        C  0.25815474  0.90369389  0.14344198    -0.11200
C249        C  0.23944179  0.87346567  0.12739142    -0.10500
C250        C  0.19250449  0.84864779  0.12449340    -0.01400
C251        C  0.16464286  0.85362692  0.13850534    -0.11600
C252        C  0.18340914  0.88386343  0.15466153    -0.10000
H253        H  0.29449086  0.92260335  0.14501450     0.07900
H254        H  0.26190684  0.87040555  0.11692097     0.11600
H255        H  0.12835683  0.83508821  0.13665831     0.11300
H256        H  0.16108889  0.88806076  0.16477150     0.07900
C257        C  0.17543498  0.28585481  0.01181904    -0.11200
C258        C  0.22079110  0.29604814  0.01154171     0.05900
C259        C  0.24652089  0.31353620  0.02917927    -0.10000
C260        C  0.22787829  0.32049643  0.04645255    -0.11600
C261        C  0.18257559  0.30943316  0.04692454    -0.01400
C262        C  0.15644241  0.29226018  0.02939005    -0.10500
C263        C  0.24122114  0.28613842  0.99373058     0.05900
H264        H  0.28097054  0.32057072  0.03000042     0.07800
H265        H  0.24887433  0.33349806  0.05972604     0.11300
H266        H  0.12146661  0.28378459  0.02927717     0.11600
H267        H  0.15456138  0.27276893  0.99853394     0.07900
C268        C  0.21566944  0.24801302  0.98152993    -0.11200
C269        C  0.23687969  0.23440707  0.96738007    -0.10500
C270        C  0.28404721  0.25820654  0.96538578    -0.01400
C271        C  0.30913411  0.29791373  0.97645880    -0.11600
C272        C  0.28795545  0.31215011  0.99014486    -0.10000
H273        H  0.17970308  0.22701298  0.98374081     0.07900
H274        H  0.21673074  0.20360453  0.95900571     0.11600
H275        H  0.34547352  0.31730171  0.97498515     0.11300
H276        H  0.30870690  0.34274846  0.99853218     0.07900
C277        C  0.16570936  0.52740670  0.10504155    -0.11200
C278        C  0.15161159  0.53730373  0.08681215     0.05900
C279        C  0.13575591  0.50484718  0.07143115    -0.10000
C280        C  0.13339520  0.46329387  0.07430889    -0.11600
C281        C  0.14744359  0.45343979  0.09252311    -0.01400
C282        C  0.16391346  0.48604585  0.10782001    -0.10500
C283        C  0.15221146  0.58074185  0.08406432     0.05900
H284        H  0.12417388  0.51120023  0.05731589     0.07800
H285        H  0.12045199  0.43878181  0.06226357     0.11300
H286        H  0.17480654  0.47932830  0.12204057     0.11600
H287        H  0.17836859  0.55181257  0.11713021     0.07900
C288        C  0.13672890  0.59764509  0.09943650    -0.11200
C289        C  0.13589871  0.63768194  0.09678288    -0.10500
C290        C  0.15122769  0.66227944  0.07882645    -0.01400
C291        C  0.16730105  0.64582371  0.06349739    -0.11600
C292        C  0.16740836  0.60525838  0.06602114    -0.10000
H293        H  0.12431536  0.57934935  0.11340404     0.07900
H294        H  0.12327338  0.64947630  0.10884315     0.11600
H295        H  0.17909140  0.66393283  0.04945079     0.11300
H296        H  0.17974361  0.59323435  0.05392950     0.07900
C297        C  0.23321364  0.20196100  0.19702951    -0.11200
C298        C  0.25922570  0.23230732  0.18183812     0.05900
C299        C  0.30435745  0.24322802  0.17952465    -0.10000
C300        C  0.32279464  0.22341687  0.19189783    -0.11600
C301        C  0.29644487  0.19248064  0.20685211    -0.01400
C302        C  0.25161824  0.18232694  0.20940033    -0.10500
C303        C  0.23844872  0.25072388  0.16794641     0.05900
H304        H  0.32497795  0.26615702  0.16778160     0.07800
H305        H  0.35731141  0.23160255  0.18951697     0.11300
H306        H  0.23053201  0.15877719  0.22086952     0.11600
H307        H  0.19849272  0.19327034  0.19926237     0.07900
C308        C  0.19658920  0.22166980  0.15900778    -0.11200
C309        C  0.17668237  0.23828839  0.14580189    -0.10500
C310        C  0.19787669  0.28447265  0.14132570    -0.01400
C311        C  0.23964533  0.31375606  0.15036695    -0.11600
C312        C  0.25991996  0.29695327  0.16345682    -0.10000
H313        H  0.17950729  0.18587017  0.16203211     0.07900
H314        H  0.14451400  0.21482007  0.13907457     0.11600
H315        H  0.25671821  0.34948289  0.14721425     0.11300
H316        H  0.29210789  0.32009260  0.17025799     0.07900
C317        C  0.88200823  0.15945568  0.18137186    -0.11200
C318        C  0.91795660  0.20425106  0.18039623     0.05900
C319        C  0.92754036  0.23163681  0.19751046    -0.10000
C320        C  0.90150480  0.21531339  0.21485482    -0.11600
C321        C  0.86540868  0.17087427  0.21580748    -0.01400
C322        C  0.85608499  0.14285277  0.19896234    -0.10500
C323        C  0.94662416  0.22275002  0.16205710     0.05900
H324        H  0.95576264  0.26574416  0.19767306     0.07800
H325        H  0.91008857  0.23754011  0.22769644     0.11300
H326        H  0.82851587  0.10841447  0.19931275     0.11600
H327        H  0.87358884  0.13740666  0.16848853     0.07900
C328        C  0.95934401  0.19648169  0.15054790    -0.11200
C329        C  0.99176140  0.21622429  0.13529332    -0.10500
C330        C  0.01233116  0.26260700  0.13144804    -0.01400
C331        C  0.99741076  0.28810729  0.14195387    -0.11600
C332        C  0.96465236  0.26836488  0.15689596    -0.10000
H333        H  0.94631709  0.16132791  0.15408911     0.07900
H334        H  0.00296385  0.19589909  0.12749368     0.11600
H335        H  0.01244618  0.32388301  0.13915994     0.11300
H336        H  0.95465098  0.28936806  0.16493247     0.07900
C337        C  0.89037564  0.70331322  0.99092969    -0.11200
C338        C  0.92259798  0.68917221  0.99183071     0.05900
C339        C  0.92537911  0.66499716  0.97531833    -0.10000
C340        C  0.89690119  0.65484808  0.95870832    -0.11600
C341        C  0.86510162  0.66917693  0.95772855    -0.01400
C342        C  0.86212431  0.69362127  0.97403049    -0.10500
C343        C  0.95430864  0.70032743  0.00936091     0.05900
H344        H  0.95041919  0.65465786  0.97485798     0.07800
H345        H  0.90056044  0.63642282  0.94633795     0.11300
H346        H  0.83803131  0.70524099  0.97371382     0.11600
H347        H  0.88668015  0.72164916  0.00330501     0.07900
C348        C  0.96991571  0.74049286  0.02047134    -0.11200
C349        C  0.00342150  0.75283165  0.03528313    -0.10500
C350        C  0.02271767  0.72583723  0.03899289    -0.01400
C351        C  0.00598951  0.68500387  0.02864525    -0.11600
C352        C  0.97167208  0.67197430  0.01435737    -0.10000
H353        H  0.95796067  0.76356263  0.01711673     0.07900
H354        H  0.01625290  0.78482763  0.04292220     0.11600
H355        H  0.02019003  0.66349576  0.03134180     0.11300
H356        H  0.95960315  0.63996107  0.00688496     0.07900
C357        C  0.62172521  0.45952862  0.93276870    -0.11200
C358        C  0.60414124  0.42976437  0.91637899     0.05900
C359        C  0.62606010  0.44354200  0.89770300    -0.10000
C360        C  0.66454846  0.48613347  0.89548853    -0.11600
C361        C  0.68145637  0.51620376  0.91178618    -0.01400
C362        C  0.65965269  0.50242496  0.93045189    -0.10500
C363        C  0.56163737  0.38571165  0.91858004     0.05900
H364        H  0.61339211  0.42134439  0.88482180     0.07800
H365        H  0.68061006  0.49590202  0.88090177     0.11300
H366        H  0.67196213  0.52483312  0.94327231     0.11600
H367        H  0.60528264  0.45009959  0.94728425     0.07900
C368        C  0.55443766  0.35810470  0.93542252    -0.11200
C369        C  0.51270385  0.31887690  0.93838525    -0.10500
C370        C  0.47712338  0.30672998  0.92470556    -0.01400
C371        C  0.48490439  0.33341628  0.90749802    -0.11600
C372        C  0.52672325  0.37230140  0.90442634    -0.10000
H373        H  0.58089888  0.36725932  0.94644077     0.07900
H374        H  0.50786560  0.29876893  0.95170005     0.11600
H375        H  0.45829101  0.32482067  0.89662099     0.11300
H376        H  0.53113850  0.39294460  0.89135401     0.07900
C377        C  0.04262426  0.72069100  0.82373046    -0.11200
C378        C  0.01142255  0.73593683  0.82363428     0.05900
C379        C  0.01865086  0.77108361  0.81055870    -0.10000
C380        C  0.05713966  0.79192153  0.79855687    -0.11600
C381        C  0.08943851  0.77817768  0.79931740    -0.01400
C382        C  0.08140008  0.74173339  0.81170169    -0.10500
C383        C  0.97304853  0.71773708  0.83797685     0.05900
H384        H  0.99480544  0.78300743  0.80986798     0.07800
H385        H  0.06208975  0.81957232  0.78899611     0.11300
H386        H  0.10563636  0.73032864  0.81249686     0.11600
H387        H  0.03796912  0.69375379  0.83369581     0.07900
C388        C  0.94603582  0.67123858  0.84155766    -0.11200
C389        C  0.90947878  0.65498714  0.85491264    -0.10500
C390        C  0.89968333  0.68504720  0.86500027    -0.01400
C391        C  0.92728065  0.73144230  0.86165463    -0.11600
C392        C  0.96338164  0.74754669  0.84831877    -0.10000
H393        H  0.95271705  0.64749909  0.83377344     0.07900
H394        H  0.88882492  0.61905915  0.85727141     0.11600
H395        H  0.92086165  0.75551584  0.86930497     0.11300
H396        H  0.98407669  0.78356067  0.84621126     0.07900
C397        C  0.24840178  0.02174954  0.82094014    -0.11200
C398        C  0.28639947  0.03349772  0.83315908     0.05900
C399        C  0.31190105  0.01237778  0.82935858    -0.10000
C400        C  0.29807871  0.97843464  0.81493065    -0.11600
C401        C  0.25948447  0.96590235  0.80328938    -0.01400
C402        C  0.23543608  0.98866940  0.80599319    -0.10500
C403        C  0.29816219  0.06542028  0.85048421     0.05900
H404        H  0.34236417  0.02144314  0.83773343     0.07800
H405        H  0.31744522  0.96164003  0.81296397     0.11300
H406        H  0.20526825  0.97923030  0.79727207     0.11600
H407        H  0.22747839  0.03663354  0.82339919     0.07900
C408        C  0.28794688  0.10049412  0.85041795    -0.11200
C409        C  0.29826746  0.12916324  0.86709798    -0.10500
C410        C  0.31968997  0.12381883  0.88401516    -0.01400
C411        C  0.33002832  0.08913297  0.88404718    -0.11600
C412        C  0.31898707  0.06011329  0.86770164    -0.10000
H413        H  0.27234898  0.10617094  0.83745615     0.07900
H414        H  0.28984078  0.15562530  0.86670671     0.11600
H415        H  0.34594700  0.08369547  0.89698438     0.11300
H416        H  0.32604094  0.03282844  0.86889402     0.07900
C417        C  0.72465612  0.82508742  0.82371545    -0.11200
C418        C  0.70550591  0.77801738  0.82579810     0.05900
C419        C  0.67678317  0.75038637  0.81036120    -0.10000
C420        C  0.66750415  0.76884884  0.79357138    -0.11600
C421        C  0.68699071  0.81562900  0.79138961    -0.01400
C422        C  0.71564558  0.84365910  0.80667362    -0.10500
C423        C  0.71648298  0.75739913  0.84333748     0.05900
H424        H  0.66221295  0.71425149  0.81082318     0.07800
H425        H  0.64541244  0.74621004  0.78205332     0.11300
H426        H  0.73115863  0.87986816  0.80543690     0.11600
H427        H  0.74647688  0.84773781  0.83526102     0.07900
C428        C  0.75877078  0.78028163  0.85305330    -0.11200
C429        C  0.77056158  0.75888200  0.86789977    -0.10500
C430        C  0.74086185  0.71381615  0.87309283    -0.01400
C431        C  0.69811410  0.69143375  0.86407489    -0.11600
C432        C  0.68575635  0.71316333  0.84972199    -0.10000
H433        H  0.78376198  0.81399055  0.84858428     0.07900
H434        H  0.80402289  0.77671633  0.87443253     0.11600
H435        H  0.67448392  0.65673508  0.86787363     0.11300
H436        H  0.65224622  0.69464141  0.84333438     0.07900
C437        C  0.46149290  0.83576361  0.73325068    -0.11200
C438        C  0.44516393  0.83655843  0.75251010     0.05900
C439        C  0.47090966  0.83856678  0.76937097    -0.10000
C440        C  0.51310511  0.84183241  0.76695328    -0.11600
C441        C  0.52979257  0.84205135  0.74764888    -0.01400
C442        C  0.50311719  0.83799350  0.73085624    -0.10500
C443        C  0.40267108  0.83782550  0.75486965     0.05900
H444        H  0.45914600  0.83931806  0.78437976     0.07800
H445        H  0.53288328  0.84462576  0.78015296     0.11300
H446        H  0.51512576  0.83803834  0.71580966     0.11600
H447        H  0.44215535  0.83383198  0.72001628     0.07900
C448        C  0.39577203  0.86853787  0.74363481    -0.11200
C449        C  0.35648693  0.87093017  0.74606550    -0.10500
C450        C  0.32290587  0.84228782  0.75962253    -0.01400
C451        C  0.32953538  0.81120320  0.77073115    -0.11600
C452        C  0.36919022  0.80921854  0.76848339    -0.10000
H453        H  0.42123718  0.89131720  0.73320243     0.07900
H454        H  0.35244156  0.89531536  0.73733422     0.11600
H455        H  0.30424300  0.78869564  0.78128713     0.11300
H456        H  0.37358473  0.78510336  0.77725775     0.07900
C457        C  0.75648659  0.74303444  0.63943813    -0.11200
C458        C  0.73641209  0.72376383  0.65792115     0.05900
C459        C  0.73592746  0.68442385  0.66427684    -0.10000
C460        C  0.75747451  0.66627868  0.65286650    -0.11600
C461        C  0.77977311  0.68726464  0.63495095    -0.01400
C462        C  0.77792217  0.72503589  0.62811093    -0.10500
C463        C  0.72008956  0.74736048  0.67120217     0.05900
H464        H  0.72081752  0.66902271  0.67852804     0.07800
H465        H  0.75833642  0.63710554  0.65845096     0.11300
H466        H  0.79421536  0.74154182  0.61419625     0.11600
H467        H  0.75671417  0.77290085  0.63403299     0.07900
C468        C  0.74765969  0.79377535  0.67460793    -0.11200
C469        C  0.73396418  0.81654528  0.68758683    -0.10500
C470        C  0.69205221  0.79359881  0.69728194    -0.01400
C471        C  0.66392097  0.74730865  0.69364801    -0.11600
C472        C  0.67803396  0.72423804  0.68085915    -0.10000
H473        H  0.78045762  0.81234570  0.66755297     0.07900
H474        H  0.75635113  0.85217651  0.69011825     0.11600
H475        H  0.63149892  0.72880937  0.70102542     0.11300
H476        H  0.65613366  0.68849412  0.67844229     0.07900
C477        C  0.10012147  0.82252928  0.68633482    -0.11200
C478        C  0.09054546  0.78105745  0.67787067     0.05900
C479        C  0.11386016  0.75995802  0.68521116    -0.10000
C480        C  0.14323298  0.77801552  0.70158219    -0.11600
C481        C  0.15049345  0.81789990  0.71079957    -0.01400
C482        C  0.13000347  0.84088765  0.70257201    -0.10500
C483        C  0.05340911  0.75789587  0.66289631     0.05900
H484        H  0.10818689  0.72860560  0.67875019     0.07800
H485        H  0.15900863  0.75984925  0.70752121     0.11300
H486        H  0.13482493  0.87154812  0.70948069     0.11600
H487        H  0.08255865  0.83954830  0.68120277     0.07900
C488        C  0.02371053  0.71115759  0.66424529    -0.11200
C489        C  0.98605495  0.68970353  0.65165839    -0.10500
C490        C  0.97742575  0.71426832  0.63723556    -0.01400
C491        C  0.00779513  0.76060931  0.63528489    -0.11600
C492        C  0.04524325  0.78228825  0.64809360    -0.10000
H493        H  0.02846629  0.69132538  0.67559890     0.07900
H494        H  0.96328595  0.65386137  0.65337673     0.11600
H495        H  0.00183405  0.78027645  0.62427495     0.11300
H496        H  0.06760851  0.81821718  0.64651763     0.07900
C497        C  0.75109127  0.08249406  0.64704910    -0.11200
C498        C  0.78037762  0.08636144  0.66278487     0.05900
C499        C  0.82672296  0.11786194  0.66059712    -0.10000
C500        C  0.84319022  0.14380739  0.64302180    -0.11600
C501        C  0.81359686  0.13934674  0.62740346    -0.01400
C502        C  0.76738314  0.10885865  0.62976933    -0.10500
C503        C  0.76241024  0.05569904  0.68066181     0.05900
H504        H  0.85040471  0.12240792  0.67240087     0.07800
H505        H  0.87900074  0.16710916  0.64160079     0.11300
H506        H  0.74374573  0.10419024  0.61789744     0.11600
H507        H  0.71550826  0.05793403  0.64766480     0.07900
C508        C  0.71764359  0.03902056  0.68711511    -0.11200
C509        C  0.69815123  0.00464125  0.70142658    -0.10500
C510        C  0.72321077  0.98694864  0.71019734    -0.01400
C511        C  0.76894122  0.00601392  0.70514265    -0.11600
C512        C  0.78823950  0.03971589  0.69040451    -0.10000
H513        H  0.69696992  0.05143409  0.68064955     0.07900
H514        H  0.66288070  0.99080696  0.70517355     0.11600
H515        H  0.78892720  0.99270756  0.71155132     0.11300
H516        H  0.82264506  0.05124071  0.68588402     0.07900
C517        C  0.03007621  0.23252079  0.52384523    -0.11200
C518        C  0.05008939  0.27561326  0.51499380     0.05900
C519        C  0.03485562  0.30505432  0.52106392    -0.10000
C520        C  0.99802197  0.29046875  0.53392944    -0.11600
C521        C  0.97653243  0.24670957  0.54175387    -0.01400
C522        C  0.99393240  0.21841035  0.53729112    -0.10500
C523        C  0.08333189  0.28855379  0.49817460     0.05900
H524        H  0.05042113  0.33912436  0.51537562     0.07800
H525        H  0.98567619  0.31320180  0.53746325     0.11300
H526        H  0.97781146  0.18445536  0.54318742     0.11600
H527        H  0.04054692  0.20872238  0.51959571     0.07900
C528        C  0.11325524  0.27167386  0.49664403    -0.11200
C529        C  0.14170264  0.28188188  0.47986447    -0.10500
C530        C  0.14121998  0.30970113  0.46448650    -0.01400
C531        C  0.11223393  0.32729164  0.46628783    -0.11600
C532        C  0.08345962  0.31651747  0.48267805    -0.10000
H533        H  0.11457375  0.25039333  0.50831422     0.07900
H534        H  0.16371211  0.26782371  0.47884212     0.11600
H535        H  0.11051968  0.34832608  0.45457805     0.11300
H536        H  0.06014678  0.32907903  0.48272284     0.07900
C537        C  0.89207603  0.48383247  0.59378290    -0.11200
C538        C  0.85170446  0.44368646  0.58925404     0.05900
C539        C  0.81179490  0.44602218  0.58759977    -0.10000
C540        C  0.81235116  0.48681221  0.59047772    -0.11600
C541        C  0.85296923  0.52661676  0.59441620    -0.01400
C542        C  0.89277426  0.52471341  0.59594787    -0.10500
C543        C  0.85149366  0.40007635  0.58615458     0.05900
H544        H  0.78002638  0.41666554  0.58372684     0.07800
H545        H  0.78117208  0.48744375  0.58913206     0.11300
H546        H  0.92448218  0.55484557  0.59927491     0.11600
H547        H  0.92343370  0.48403568  0.59594717     0.07900
C548        C  0.89087523  0.39990159  0.58006025    -0.11200
C549        C  0.89100683  0.35947624  0.57755125    -0.10500
C550        C  0.85147103  0.31799454  0.58027513    -0.01400
C551        C  0.81188504  0.31757247  0.58589433    -0.11600
C552        C  0.81205287  0.35802415  0.58916605    -0.10000
H553        H  0.92173604  0.43084193  0.57688164     0.07900
H554        H  0.92191129  0.36061876  0.57300099     0.11600
H555        H  0.78107483  0.28590553  0.58827977     0.11300
H556        H  0.78119217  0.35595310  0.59433772     0.07900
C557        C  0.66292238  0.88730361  0.35700936    -0.11200
C558        C  0.70758123  0.91084961  0.34999295     0.05900
C559        C  0.73946770  0.90154169  0.35875045    -0.10000
C560        C  0.72737685  0.87109926  0.37481379    -0.11600
C561        C  0.68315139  0.84928160  0.38237480    -0.01400
C562        C  0.65089057  0.85697259  0.37297476    -0.10500
C563        C  0.72108893  0.94691144  0.33455026     0.05900
H564        H  0.77420620  0.91929737  0.35380077     0.07800
H565        H  0.75304067  0.86605793  0.38183818     0.11300
H566        H  0.61650914  0.84062563  0.37840167     0.11600
H567        H  0.63733075  0.89300122  0.35038187     0.07900
C568        C  0.75149479  0.95278684  0.31905459    -0.11200
C569        C  0.76461866  0.98764374  0.30496301    -0.10500
C570        C  0.74811465  0.01767953  0.30629038    -0.01400
C571        C  0.71766232  0.01166618  0.32170266    -0.11600
C572        C  0.70416749  0.97667180  0.33557203    -0.10000
H573        H  0.76499384  0.93034264  0.31779597     0.07900
H574        H  0.78844116  0.99175165  0.29333425     0.11600
H575        H  0.70451287  0.03438602  0.32316647     0.11300
H576        H  0.68129931  0.97366480  0.34746605     0.07900
C577        C  0.73096419  0.97833311  0.47723795    -0.11200
C578        C  0.71133384  0.97449035  0.49616850     0.05900
C579        C  0.67601985  0.93223236  0.50232956    -0.10000
C580        C  0.66105501  0.89447779  0.48986164    -0.11600
C581        C  0.68176377  0.89817185  0.47122085    -0.01400
C582        C  0.71663397  0.94050725  0.46497394    -0.10500
C583        C  0.73028240  0.01379264  0.50995661     0.05900
H584        H  0.66041286  0.92838779  0.51687330     0.07800
H585        H  0.63435765  0.86212084  0.49509050     0.11300
H586        H  0.73329899  0.94424917  0.45071204     0.11600
H587        H  0.75866005  0.01034987  0.47225310     0.07900
C588        C  0.74242745  0.00948863  0.52963121    -0.11200
C589        C  0.76543902  0.04733341  0.54194107    -0.10500
C590        C  0.77614551  0.09024014  0.53498805    -0.01400
C591        C  0.76201993  0.09433566  0.51567384    -0.11600
C592        C  0.73970250  0.05647473  0.50316969    -0.10000
H593        H  0.73588505  0.97709043  0.53519351     0.07900
H594        H  0.77562818  0.04314122  0.55682336     0.11600
H595        H  0.76975458  0.12699777  0.50997742     0.11300
H596        H  0.73045219  0.06058691  0.48808309     0.07900
C597        C  0.83793339  0.74006143  0.52458886    -0.11200
C598        C  0.79775083  0.70901288  0.51490237     0.05900
C599        C  0.77590431  0.66374822  0.52086806    -0.10000
C600        C  0.79249365  0.65021415  0.53699914    -0.11600
C601        C  0.83162233  0.68152826  0.54727040    -0.01400
C602        C  0.85503507  0.72634062  0.54051940    -0.10500
C603        C  0.77598346  0.72424721  0.50007190     0.05900
H604        H  0.74468301  0.63936427  0.51374775     0.07800
H605        H  0.77367548  0.61549061  0.54193973     0.11300
H606        H  0.88509875  0.75121368  0.54823300     0.11600
H607        H  0.85531608  0.77519109  0.52019421     0.07900
C608        C  0.76565763  0.75754252  0.50548989    -0.11200
C609        C  0.74101452  0.76903730  0.49247271    -0.10500
C610        C  0.72715387  0.74829448  0.47357446    -0.01400
C611        C  0.73860244  0.71592320  0.46785568    -0.11600
C612        C  0.76229444  0.70350857  0.48115062    -0.10000
H613        H  0.77535089  0.77355170  0.52008901     0.07900
H614        H  0.73269196  0.79420607  0.49720926     0.11600
H615        H  0.72809964  0.69936092  0.45340766     0.11300
H616        H  0.76971845  0.67752716  0.47674702     0.07900
C617        C  0.48752308  0.58461555  0.42913352    -0.11200
C618        C  0.44687970  0.58420580  0.42505474     0.05900
C619        C  0.44836818  0.62608883  0.42437364    -0.10000
C620        C  0.48888042  0.66656464  0.42764146    -0.11600
C621        C  0.52921530  0.66641973  0.43108496    -0.01400
C622        C  0.52806354  0.62505430  0.43173968    -0.10500
C623        C  0.40365234  0.54041902  0.42165350     0.05900
H624        H  0.41859842  0.62809390  0.42095136     0.07800
H625        H  0.48886774  0.69807929  0.42695303     0.11300
H626        H  0.55857741  0.62388079  0.43459461     0.11600
H627        H  0.48844761  0.55376136  0.43063566     0.07900
C628        C  0.40444498  0.50159184  0.41523253    -0.11200
C629        C  0.36464931  0.46018337  0.41322681    -0.10500
C630        C  0.32272268  0.45664232  0.41666833    -0.01400
C631        C  0.32114810  0.49523346  0.42218442    -0.11600
C632        C  0.36108970  0.53642840  0.42501465    -0.10000
H633        H  0.43569573  0.50276718  0.41155591     0.07900
H634        H  0.36659455  0.43096249  0.40858364     0.11600
H635        H  0.28904063  0.49318633  0.42494850     0.11300
H636        H  0.35822193  0.56465984  0.43026832     0.07900
loop_ 
_geom_bond_atom_site_label_1 
_geom_bond_atom_site_label_2 
_geom_bond_distance 
_geom_bond_site_symmetry_2 
_ccdc_geom_bond_type 
In1           O3   2.230       .  S
In1           O4   2.269       .  S
In1          O12   2.247       .  S
In1           O6   2.267       .  S
In1           O8   2.260       .  S
In1           O9   2.272       .  S
In1          O10   2.232       .  S
In1          O13   2.237       .  S
C2            O8   1.266       .  A
C2           O10   1.260       .  A
C2          C581   1.478       .  S
O3           C11   1.259       .  A
O4           C11   1.266       .  A
C5           O12   1.261       .  A
C5            O6   1.263       .  A
C5          C621   1.483       .  S
C7            O9   1.264       .  A
C7           O13   1.260       .  A
C7          C561   1.484       .  S
C11         C610   1.477       .  S
In14         O16   2.234       .  S
In14         O17   2.271       .  S
In14         O25   2.243       .  S
In14         O19   2.261       .  S
In14         O21   2.279       .  S
In14         O22   2.273       .  S
In14         O23   2.233       .  S
In14         O26   2.229       .  S
C15          O21   1.264       .  A
C15          O23   1.258       .  A
C15         C590   1.481       .  S
O16          C24   1.260       .  A
O17          C24   1.264       .  A
C18          O25   1.262       .  A
C18          O19   1.265       .  A
C18         C550   1.479       .  S
C20          O22   1.265       .  A
C20          O26   1.260       .  A
C20         C501   1.483       .  S
C24         C521   1.476       .  S
In27         O29   2.243       .  S
In27         O30   2.261       .  S
In27         O38   2.241       .  S
In27         O32   2.264       .  S
In27         O34   2.283       .  S
In27         O35   2.257       .  S
In27         O36   2.232       .  S
In27         O39   2.235       .  S
C28          O34   1.264       .  A
C28          O36   1.257       .  A
C28         C461   1.481       .  S
O29          C37   1.261       .  A
O30          C37   1.263       .  A
C31          O38   1.262       .  A
C31          O32   1.265       .  A
C31         C541   1.481       .  S
C33          O35   1.264       .  A
C33          O39   1.261       .  A
C33         C601   1.479       .  S
C37         C490   1.479       .  S
In40         O42   2.246       .  S
In40         O43   2.279       .  S
In40         O51   2.259       .  S
In40         O45   2.246       .  S
In40         O47   2.267       .  S
In40         O48   2.286       .  S
In40         O49   2.240       .  S
In40         O52   2.229       .  S
C41          O47   1.262       .  A
C41          O49   1.259       .  A
C41         C470   1.479       .  S
O42          C50   1.259       .  A
O43          C50   1.264       .  A
C44          O51   1.264       .  A
C44          O45   1.263       .  A
C44         C441   1.482       .  S
C46          O48   1.266       .  A
C46          O52   1.259       .  A
C46         C421   1.488       .  S
C50         C510   1.483       .  S
In53         O55   2.237       .  S
In53         O56   2.267       .  S
In53         O64   2.242       .  S
In53         O58   2.249       .  S
In53         O60   2.271       .  S
In53         O61   2.260       .  S
In53         O62   2.230       .  S
In53         O65   2.232       .  S
C54          O60   1.265       .  A
C54          O62   1.258       .  A
C54         C381   1.481       .  S
O55          C63   1.260       .  A
O56          C63   1.264       .  A
C57          O64   1.265       .  A
C57          O58   1.266       .  A
C57         C450   1.484       .  S
C59          O61   1.265       .  A
C59          O65   1.261       .  A
C59         C481   1.479       .  S
C63         C401   1.477       .  S
In66         O68   2.252       .  S
In66         O69   2.277       .  S
In66         O77   2.256       .  S
In66         O71   2.252       .  S
In66         O73   2.274       .  S
In66         O74   2.289       .  S
In66         O75   2.225       .  S
In66         O78   2.236       .  S
C67          O73   1.264       .  A
C67          O75   1.259       .  A
C67         C390   1.481       .  S
O68          C76   1.259       .  A
O69          C76   1.264       .  A
C70          O77   1.265       .  A
C70          O71   1.264       .  A
C70         C361   1.485       .  S
C72          O74   1.267       .  A
C72          O78   1.260       .  A
C72         C341   1.490       .  S
C76         C430   1.484       .  S
In79         O81   2.229       .  S
In79         O82   2.273       .  S
In79         O90   2.240       .  S
In79         O84   2.257       .  S
In79         O86   2.276       .  S
In79         O87   2.281       .  S
In79         O88   2.234       .  S
In79         O91   2.227       .  S
C80          O86   1.265       .  A
C80          O88   1.260       .  A
C80         C310   1.484       .  S
O81          C89   1.259       .  A
O82          C89   1.265       .  A
C83          O90   1.263       .  A
C83          O84   1.266       .  A
C83         C281   1.483       .  S
C85          O87   1.266       .  A
C85          O91   1.261       .  A
C85         C261   1.485       .  S
C89         C330   1.479       .  S
In92         O94   2.223       .  S
In92         O95   2.279       .  S
In92        O103   2.249       .  S
In92         O97   2.264       .  S
In92         O99   2.260       .  S
In92        O100   2.284       .  S
In92        O101   2.231       .  S
In92        O104   2.230       .  S
C93          O99   1.267       .  A
C93         O101   1.262       .  A
C93         C301   1.481       .  S
O94         C102   1.262       .  A
O95         C102   1.270       .  A
C96         O103   1.264       .  A
C96          O97   1.265       .  A
C96         C230   1.485       .  S
C98         O100   1.268       .  A
C98         O104   1.261       .  A
C98         C201   1.489       .  S
C102        C241   1.488       .  S
In105       O107   2.230       .  S
In105       O108   2.268       .  S
In105       O116   2.245       .  S
In105       O110   2.270       .  S
In105       O112   2.263       .  S
In105       O113   2.282       .  S
In105       O114   2.220       .  S
In105       O117   2.224       .  S
C106        O112   1.267       .  A
C106        O114   1.261       .  A
C106        C181   1.479       .  S
O107        C115   1.262       .  A
O108        C115   1.268       .  A
C109        O116   1.262       .  A
C109        O110   1.265       .  A
C109        C221   1.481       .  S
C111        O113   1.267       .  A
C111        O117   1.259       .  A
C111        C321   1.484       .  S
C115        C570   1.483       .  S
In118       O120   2.221       .  S
In118       O121   2.274       .  S
In118       O129   2.245       .  S
In118       O123   2.253       .  S
In118       O125   2.257       .  S
In118       O126   2.283       .  S
In118       O127   2.225       .  S
In118       O130   2.214       .  S
C119        O125   1.265       .  A
C119        O127   1.261       .  A
C119        C190   1.477       .  S
O120        C128   1.262       .  A
O121        C128   1.268       .  A
C122        O129   1.263       .  A
C122        O123   1.263       .  A
C122        C630   1.476       .  S
C124        O126   1.267       .  A
C124        O130   1.259       .  A
C124        C530   1.482       .  S
C128        C210   1.485       .  S
In131       O133   2.236       .  S
In131       O134   2.276       .  S
In131       O142   2.245       .  S
In131       O136   2.264       .  S
In131       O138   2.269       .  S
In131       O139   2.270       .  S
In131       O140   2.224       .  S
In131       O143   2.242       .  S
C132        O138   1.266       .  A
C132        O140   1.259       .  A
C132        C161   1.480       .  S
O133        C141   1.260       .  A
O134        C141   1.265       .  A
C135        O142   1.264       .  A
C135        O136   1.266       .  A
C135        C290   1.486       .  S
C137        O139   1.267       .  A
C137        O143   1.263       .  A
C137        C250   1.489       .  S
C141        C350   1.480       .  S
In144       O146   2.245       .  S
In144       O147   2.271       .  S
In144       O155   2.246       .  S
In144       O149   2.260       .  S
In144       O151   2.274       .  S
In144       O152   2.274       .  S
In144       O153   2.226       .  S
In144       O156   2.218       .  S
C145        O151   1.265       .  A
C145        O153   1.259       .  A
C145        C170   1.481       .  S
O146        C154   1.261       .  A
O147        C154   1.263       .  A
C148        O155   1.263       .  A
C148        O149   1.265       .  A
C148        C370   1.486       .  S
C150        O152   1.266       .  A
C150        O156   1.259       .  A
C150        C410   1.480       .  S
C154        C270   1.482       .  S
C157        C158   1.407       .  A
C157        C162   1.403       .  A
C157        H167   1.083   1_554  S
C158        C163   1.489   1_564  S
C158        C159   1.405       .  A
C159        C160   1.395       .  A
C159        H164   1.083       .  S
C160        C161   1.405       .  A
C160        H165   1.083       .  S
C161        C162   1.405       .  A
C162        H166   1.082       .  S
C163        C168   1.408       .  A
C163        C172   1.405       .  A
C168        C169   1.404       .  A
C168        H173   1.083   1_556  S
C169        C170   1.405       .  A
C169        H174   1.083       .  S
C170        C171   1.404       .  A
C171        C172   1.395       .  A
C171        H175   1.083       .  S
C172        H176   1.083       .  S
C177        C178   1.402       .  A
C177        C182   1.394       .  A
C177        H187   1.084   1_655  S
C178        C183   1.477   1_655  S
C178        C179   1.404       .  A
C179        C180   1.403       .  A
C179        H184   1.083       .  S
C180        C181   1.406       .  A
C180        H185   1.083       .  S
C181        C182   1.405       .  A
C182        H186   1.083       .  S
C183        C188   1.402       .  A
C183        C192   1.404       .  A
C188        C189   1.394       .  A
C188        H193   1.083       .  S
C189        C190   1.405       .  A
C189        H194   1.083       .  S
C190        C191   1.406       .  A
C191        C192   1.402       .  A
C191        H195   1.082       .  S
C192        H196   1.084       .  S
C197        C198   1.410       .  A
C197        C202   1.408       .  A
C197        H207   1.082       .  S
C198        C203   1.496       .  S
C198        C199   1.406       .  A
C199        C200   1.397       .  A
C199        H204   1.083       .  S
C200        C201   1.405       .  A
C200        H205   1.082       .  S
C201        C202   1.407       .  A
C202        H206   1.083       .  S
C203        C208   1.406       .  A
C203        C212   1.410       .  A
C208        C209   1.395       .  A
C208        H213   1.083       .  S
C209        C210   1.404       .  A
C209        H214   1.082       .  S
C210        C211   1.407       .  A
C211        C212   1.408       .  A
C211        H215   1.084       .  S
C212        H216   1.082       .  S
C217        C218   1.412       .  A
C217        C222   1.400       .  A
C217        H227   1.080       .  S
C218        C223   1.509       .  S
C218        C219   1.414       .  A
C219        C220   1.406       .  A
C219        H224   1.081       .  S
C220        C221   1.403       .  A
C220        H225   1.083       .  S
C221        C222   1.401       .  A
C222        H226   1.084       .  S
C223        C228   1.412       .  A
C223        C232   1.413       .  A
C228        C229   1.401       .  A
C228        H233   1.081       .  S
C229        C230   1.403       .  A
C229        H234   1.083       .  S
C230        C231   1.404       .  A
C231        C232   1.406       .  A
C231        H235   1.083       .  S
C232        H236   1.081       .  S
C237        C238   1.410       .  A
C237        C242   1.408       .  A
C237        H247   1.082       .  S
C238        C243   1.498       .  S
C238        C239   1.406       .  A
C239        C240   1.398   1_565  A
C239        H244   1.083       .  S
C240        C241   1.406       .  A
C240        H245   1.083       .  S
C241        C242   1.406   1_545  A
C242        H246   1.083       .  S
C243        C248   1.408       .  A
C243        C252   1.409       .  A
C248        C249   1.400       .  A
C248        H253   1.083       .  S
C249        C250   1.406       .  A
C249        H254   1.083       .  S
C250        C251   1.406       .  A
C251        C252   1.406       .  A
C251        H255   1.083       .  S
C252        H256   1.082       .  S
C257        C258   1.412       .  A
C257        C262   1.409       .  A
C257        H267   1.082   1_554  S
C258        C263   1.501   1_554  S
C258        C259   1.408       .  A
C259        C260   1.394       .  A
C259        H264   1.082       .  S
C260        C261   1.402       .  A
C260        H265   1.083       .  S
C261        C262   1.407       .  A
C262        H266   1.083       .  S
C263        C268   1.410       .  A
C263        C272   1.410       .  A
C268        C269   1.406       .  A
C268        H273   1.082       .  S
C269        C270   1.406       .  A
C269        H274   1.083       .  S
C270        C271   1.402       .  A
C271        C272   1.398       .  A
C271        H275   1.083       .  S
C272        H276   1.082       .  S
C277        C278   1.408       .  A
C277        C282   1.402       .  A
C277        H287   1.083       .  S
C278        C283   1.492       .  S
C278        C279   1.406       .  A
C279        C280   1.401       .  A
C279        H284   1.083       .  S
C280        C281   1.406       .  A
C280        H285   1.083       .  S
C281        C282   1.405       .  A
C282        H286   1.083       .  S
C283        C288   1.406       .  A
C283        C292   1.408       .  A
C288        C289   1.400       .  A
C288        H293   1.083       .  S
C289        C290   1.405       .  A
C289        H294   1.083       .  S
C290        C291   1.406       .  A
C291        C292   1.404       .  A
C291        H295   1.083       .  S
C292        H296   1.083       .  S
C297        C298   1.405       .  A
C297        C302   1.398       .  A
C297        H307   1.083       .  S
C298        C303   1.487       .  S
C298        C299   1.406       .  A
C299        C300   1.403       .  A
C299        H304   1.083       .  S
C300        C301   1.405       .  A
C300        H305   1.082       .  S
C301        C302   1.405       .  A
C302        H306   1.084       .  S
C303        C308   1.404       .  A
C303        C312   1.407       .  A
C308        C309   1.397       .  A
C308        H313   1.083       .  S
C309        C310   1.406       .  A
C309        H314   1.083       .  S
C310        C311   1.406       .  A
C311        C312   1.405       .  A
C311        H315   1.082       .  S
C312        H316   1.083       .  S
C317        C318   1.410       .  A
C317        C322   1.407       .  A
C317        H327   1.083       .  S
C318        C323   1.495       .  S
C318        C319   1.407       .  A
C319        C320   1.394       .  A
C319        H324   1.082       .  S
C320        C321   1.404       .  A
C320        H325   1.083       .  S
C321        C322   1.406       .  A
C322        H326   1.082       .  S
C323        C328   1.409       .  A
C323        C332   1.408       .  A
C328        C329   1.405       .  A
C328        H333   1.082       .  S
C329        C330   1.405   1_655  A
C329        H334   1.083   1_655  S
C330        C331   1.403   1_455  A
C331        C332   1.396       .  A
C331        H335   1.084   1_655  S
C332        H336   1.083       .  S
C337        C338   1.413       .  A
C337        C342   1.409       .  A
C337        H347   1.082   1_556  S
C338        C343   1.506   1_556  S
C338        C339   1.409       .  A
C339        C340   1.397       .  A
C339        H344   1.081       .  S
C340        C341   1.404       .  A
C340        H345   1.083       .  S
C341        C342   1.407       .  A
C342        H346   1.082       .  S
C343        C348   1.412       .  A
C343        C352   1.411       .  A
C348        C349   1.407   1_655  A
C348        H353   1.082       .  S
C349        C350   1.404       .  A
C349        H354   1.083       .  S
C350        C351   1.401       .  A
C351        C352   1.399   1_455  A
C351        H355   1.084       .  S
C352        H356   1.082       .  S
C357        C358   1.406       .  A
C357        C362   1.402       .  A
C357        H367   1.084       .  S
C358        C363   1.491       .  S
C358        C359   1.407       .  A
C359        C360   1.403       .  A
C359        H364   1.082       .  S
C360        C361   1.406       .  A
C360        H365   1.084       .  S
C361        C362   1.405       .  A
C362        H366   1.082       .  S
C363        C368   1.407       .  A
C363        C372   1.405       .  A
C368        C369   1.403       .  A
C368        H373   1.082       .  S
C369        C370   1.406       .  A
C369        H374   1.084       .  S
C370        C371   1.406       .  A
C371        C372   1.401       .  A
C371        H375   1.082       .  S
C372        H376   1.084       .  S
C377        C378   1.407       .  A
C377        C382   1.404       .  A
C377        H387   1.083       .  S
C378        C383   1.487   1_455  S
C378        C379   1.405       .  A
C379        C380   1.396       .  A
C379        H384   1.083   1_455  S
C380        C381   1.405       .  A
C380        H385   1.083       .  S
C381        C382   1.405       .  A
C382        H386   1.083       .  S
C383        C388   1.408       .  A
C383        C392   1.404       .  A
C388        C389   1.405       .  A
C388        H393   1.083       .  S
C389        C390   1.406       .  A
C389        H394   1.083       .  S
C390        C391   1.404       .  A
C391        C392   1.394       .  A
C391        H395   1.083       .  S
C392        H396   1.083       .  S
C397        C398   1.411       .  A
C397        C402   1.404   1_545  A
C397        H407   1.082       .  S
C398        C403   1.500       .  S
C398        C399   1.411       .  A
C399        C400   1.396   1_545  A
C399        H404   1.082       .  S
C400        C401   1.401       .  A
C400        H405   1.084       .  S
C401        C402   1.403       .  A
C402        H406   1.083       .  S
C403        C408   1.412       .  A
C403        C412   1.408       .  A
C408        C409   1.406       .  A
C408        H413   1.082       .  S
C409        C410   1.404       .  A
C409        H414   1.083       .  S
C410        C411   1.402       .  A
C411        C412   1.393       .  A
C411        H415   1.083       .  S
C412        H416   1.081       .  S
C417        C418   1.414       .  A
C417        C422   1.408       .  A
C417        H427   1.082       .  S
C418        C423   1.506       .  S
C418        C419   1.409       .  A
C419        C420   1.397       .  A
C419        H424   1.081       .  S
C420        C421   1.404       .  A
C420        H425   1.083       .  S
C421        C422   1.405       .  A
C422        H426   1.083       .  S
C423        C428   1.411       .  A
C423        C432   1.412       .  A
C428        C429   1.405       .  A
C428        H433   1.081       .  S
C429        C430   1.404       .  A
C429        H434   1.084       .  S
C430        C431   1.402       .  A
C431        C432   1.401       .  A
C431        H435   1.083       .  S
C432        H436   1.082       .  S
C437        C438   1.405       .  A
C437        C442   1.399       .  A
C437        H447   1.083       .  S
C438        C443   1.487       .  S
C438        C439   1.406       .  A
C439        C440   1.403       .  A
C439        H444   1.083       .  S
C440        C441   1.406       .  A
C440        H445   1.083       .  S
C441        C442   1.405       .  A
C442        H446   1.083       .  S
C443        C448   1.405       .  A
C443        C452   1.406       .  A
C448        C449   1.399       .  A
C448        H453   1.083       .  S
C449        C450   1.405       .  A
C449        H454   1.083       .  S
C450        C451   1.407       .  A
C451        C452   1.403       .  A
C451        H455   1.083       .  S
C452        H456   1.083       .  S
C457        C458   1.404       .  A
C457        C462   1.395       .  A
C457        H467   1.083       .  S
C458        C463   1.486       .  S
C458        C459   1.407       .  A
C459        C460   1.405       .  A
C459        H464   1.084       .  S
C460        C461   1.405       .  A
C460        H465   1.082       .  S
C461        C462   1.405       .  A
C462        H466   1.084       .  S
C463        C468   1.405       .  A
C463        C472   1.406       .  A
C468        C469   1.395       .  A
C468        H473   1.084       .  S
C469        C470   1.403       .  A
C469        H474   1.083       .  S
C470        C471   1.406       .  A
C471        C472   1.404       .  A
C471        H475   1.083       .  S
C472        H476   1.082       .  S
C477        C478   1.408       .  A
C477        C482   1.401       .  A
C477        H487   1.083       .  S
C478        C483   1.492       .  S
C478        C479   1.407       .  A
C479        C480   1.399       .  A
C479        H484   1.082       .  S
C480        C481   1.404       .  A
C480        H485   1.084       .  S
C481        C482   1.403       .  A
C482        H486   1.083       .  S
C483        C488   1.408       .  A
C483        C492   1.408       .  A
C488        C489   1.398   1_455  A
C488        H493   1.082       .  S
C489        C490   1.403       .  A
C489        H494   1.084       .  S
C490        C491   1.404   1_655  A
C491        C492   1.403       .  A
C491        H495   1.082       .  S
C492        H496   1.083       .  S
C497        C498   1.409       .  A
C497        C502   1.396       .  A
C497        H507   1.082       .  S
C498        C503   1.501       .  S
C498        C499   1.412       .  A
C499        C500   1.406       .  A
C499        H504   1.082       .  S
C500        C501   1.405       .  A
C500        H505   1.083       .  S
C501        C502   1.403       .  A
C502        H506   1.083       .  S
C503        C508   1.410       .  A
C503        C512   1.411       .  A
C508        C509   1.399       .  A
C508        H513   1.082       .  S
C509        C510   1.403   1_545  A
C509        H514   1.084   1_545  S
C510        C511   1.404   1_565  A
C511        C512   1.404       .  A
C511        H515   1.083   1_545  S
C512        H516   1.082       .  S
C517        C518   1.411       .  A
C517        C522   1.404   1_455  A
C517        H527   1.082       .  S
C518        C523   1.498       .  S
C518        C519   1.410       .  A
C519        C520   1.396   1_455  A
C519        H524   1.082       .  S
C520        C521   1.401       .  A
C520        H525   1.084       .  S
C521        C522   1.403       .  A
C522        H526   1.083       .  S
C523        C528   1.412       .  A
C523        C532   1.407       .  A
C528        C529   1.408       .  A
C528        H533   1.082       .  S
C529        C530   1.405       .  A
C529        H534   1.082       .  S
C530        C531   1.403       .  A
C531        C532   1.392       .  A
C531        H535   1.083       .  S
C532        H536   1.082       .  S
C537        C538   1.412       .  A
C537        C542   1.399       .  A
C537        H547   1.081       .  S
C538        C543   1.508       .  S
C538        C539   1.414       .  A
C539        C540   1.404       .  A
C539        H544   1.080       .  S
C540        C541   1.402       .  A
C540        H545   1.083       .  S
C541        C542   1.402       .  A
C542        H546   1.083       .  S
C543        C548   1.413       .  A
C543        C552   1.413       .  A
C548        C549   1.400       .  A
C548        H553   1.080       .  S
C549        C550   1.401       .  A
C549        H554   1.084       .  S
C550        C551   1.401       .  A
C551        C552   1.403       .  A
C551        H555   1.083       .  S
C552        H556   1.081       .  S
C557        C558   1.406       .  A
C557        C562   1.398       .  A
C557        H567   1.083       .  S
C558        C563   1.493       .  S
C558        C559   1.408       .  A
C559        C560   1.405       .  A
C559        H564   1.082       .  S
C560        C561   1.406       .  A
C560        H565   1.083       .  S
C561        C562   1.405       .  A
C562        H566   1.083       .  S
C563        C568   1.408       .  A
C563        C572   1.407       .  A
C568        C569   1.405       .  A
C568        H573   1.083       .  S
C569        C570   1.406   1_565  A
C569        H574   1.083       .  S
C570        C571   1.404       .  A
C571        C572   1.397   1_545  A
C571        H575   1.083       .  S
C572        H576   1.083       .  S
C577        C578   1.404       .  A
C577        C582   1.398       .  A
C577        H587   1.084   1_565  S
C578        C583   1.485   1_565  S
C578        C579   1.407       .  A
C579        C580   1.402       .  A
C579        H584   1.082       .  S
C580        C581   1.404       .  A
C580        H585   1.084       .  S
C581        C582   1.405       .  A
C582        H586   1.082       .  S
C583        C588   1.403       .  A
C583        C592   1.407       .  A
C588        C589   1.397       .  A
C588        H593   1.084   1_545  S
C589        C590   1.406       .  A
C589        H594   1.083       .  S
C590        C591   1.404       .  A
C591        C592   1.403       .  A
C591        H595   1.083       .  S
C592        H596   1.083       .  S
C597        C598   1.405       .  A
C597        C602   1.401       .  A
C597        H607   1.084       .  S
C598        C603   1.481       .  S
C598        C599   1.403       .  A
C599        C600   1.398       .  A
C599        H604   1.082       .  S
C600        C601   1.405       .  A
C600        H605   1.084       .  S
C601        C602   1.406       .  A
C602        H606   1.082       .  S
C603        C608   1.403       .  A
C603        C612   1.406       .  A
C608        C609   1.397       .  A
C608        H613   1.083       .  S
C609        C610   1.405       .  A
C609        H614   1.084       .  S
C610        C611   1.404       .  A
C611        C612   1.403       .  A
C611        H615   1.082       .  S
C612        H616   1.084       .  S
C617        C618   1.412       .  A
C617        C622   1.398       .  A
C617        H627   1.080       .  S
C618        C623   1.508       .  S
C618        C619   1.414       .  A
C619        C620   1.404       .  A
C619        H624   1.080       .  S
C620        C621   1.403       .  A
C620        H625   1.083       .  S
C621        C622   1.401       .  A
C622        H626   1.083       .  S
C623        C628   1.413       .  A
C623        C632   1.414       .  A
C628        C629   1.398       .  A
C628        H633   1.080       .  S
C629        C630   1.399       .  A
C629        H634   1.083       .  S
C630        C631   1.402       .  A
C631        C632   1.403       .  A
C631        H635   1.083       .  S
C632        H636   1.080       .  S
