geometry optimzed in LAMMPS
_audit_creation_date              2020-12-01 
_audit_creation_method            'lammps2cif' 
_symmetry_space_group_name_H-M    'P1' 
_symmetry_Int_Tables_number       1 
_symmetry_cell_setting            triclinic 
loop_ 
_symmetry_equiv_pos_as_xyz 
  x,y,z 
_cell_length_a                    38.29786585 
_cell_length_b                    38.22013264090406 
_cell_length_c                    38.0713855761236 
_cell_angle_alpha                 90.08051860842839 
_cell_angle_beta                  89.94446876664156 
_cell_angle_gamma                 89.56046276069101 
loop_ 
_atom_site_label 
_atom_site_type_symbol 
_atom_site_fract_x 
_atom_site_fract_y 
_atom_site_fract_z 
_atom_site_charge 
C1          C  0.34329446  0.22268662  0.52421759     0.79600
N2          N  0.35832989  0.19051512  0.52598092    -0.78700
C3          C  0.36363426  0.17142453  0.49661049     0.82100
N4          N  0.35332685  0.18420376  0.46516447    -0.78600
C5          C  0.33831938  0.21638297  0.46306734     0.82200
N6          N  0.33342765  0.23538570  0.49261284    -0.80300
C7          C  0.14321789  0.40605981  0.46133834     0.79600
N8          N  0.11212155  0.42406940  0.46371008    -0.78700
C9          C  0.09789634  0.43263962  0.49568439     0.82100
N10         N  0.11464140  0.42177286  0.52542932    -0.78600
C11         C  0.14553861  0.40358077  0.52376759     0.82200
N12         N  0.15967583  0.39609726  0.49162796    -0.80300
C13         C  0.13583130  0.52199588  0.36490005     0.79600
N14         N  0.10501171  0.52275473  0.38248816    -0.78700
C15         C  0.08811177  0.55336117  0.38843931     0.82100
N16         N  0.10195119  0.58356351  0.37653368    -0.78600
C17         C  0.13318779  0.58309078  0.35961567     0.82200
N18         N  0.14969477  0.55232260  0.35367054    -0.80300
C19         C  0.32216530  0.52201452  0.17080757     0.79600
N20         N  0.34030548  0.52159931  0.13985182    -0.78700
C21         C  0.35034390  0.55186604  0.12394928     0.82100
N22         N  0.34112671  0.58311333  0.13910453    -0.78600
C23         C  0.32330509  0.58422947  0.17038628     0.82200
N24         N  0.31405724  0.55346022  0.18603202    -0.80300
C25         C  0.48098503  0.21282854  0.34642646     0.79600
N26         N  0.45037911  0.23009219  0.34158035    -0.78700
C27         C  0.41986514  0.21653958  0.35342936     0.82100
N28         N  0.42007649  0.18471971  0.37021733    -0.78600
C29         C  0.45103637  0.16748399  0.37565094     0.82200
N30         N  0.48090416  0.18180104  0.36358103    -0.80300
C31         C  0.45319831  0.41818019  0.17331581     0.79600
N32         N  0.45424650  0.43555218  0.14233949    -0.78700
C33         C  0.48491525  0.44541256  0.12784801     0.82100
N34         N  0.51528443  0.43741625  0.14442077    -0.78600
C35         C  0.51468335  0.42023850  0.17581347     0.82200
N36         N  0.48363851  0.41045267  0.18990329    -0.80300
C37         C  0.11515425  0.38024641  0.96008322     0.79600
N38         N  0.12482480  0.36346365  0.99025717    -0.78700
C39         C  0.11846136  0.37803621  0.02238673     0.82100
N40         N  0.10183990  0.40977570  0.02426990    -0.78600
C41         C  0.09129465  0.42685874  0.99462668     0.82200
N42         N  0.09851246  0.41208158  0.96260635    -0.80300
C43         C  0.30443931  0.18582334  0.96772171     0.79600
N44         N  0.33710717  0.17167944  0.96826770    -0.78700
C45         C  0.35037628  0.15848094  0.99845528     0.82100
N46         N  0.33115438  0.16023972  0.02825548    -0.78600
C47         C  0.29861145  0.17479181  0.02817082     0.82200
N48         N  0.28557112  0.18741700  0.99768663    -0.80300
O49         O  0.10799495  0.33436781  0.74151091    -0.88800
C50         C  0.25205021  0.24299928  0.63863285     1.11300
O51         O  0.18719834  0.32986622  0.74002654    -1.36600
O52         O  0.17782782  0.21330745  0.67574708    -0.90200
O53         O  0.13214581  0.37604223  0.77438981    -0.90900
O54         O  0.16811528  0.29317426  0.81480851    -0.79700
O55         O  0.14465697  0.27762017  0.70350845    -1.01800
C56         C  0.23602147  0.21844290  0.79249516     1.21300
O57         O  0.24465831  0.30247997  0.77276114    -1.36700
Mn58       Mn  0.23984482  0.32249074  0.71947412     1.82100
O59         O  0.20552104  0.23137942  0.79347260    -0.78800
O60         O  0.21201031  0.19090318  0.71756753    -0.88200
C61         C  0.30518257  0.28044730  0.70345360     1.12400
C62         C  0.18585370  0.18903466  0.69713867     1.07100
O63         O  0.26412770  0.37282108  0.73044822    -0.79700
O64         O  0.21754361  0.27026952  0.71498030    -1.33400
O65         O  0.23670703  0.37438042  0.77905087    -0.99000
C66         C  0.26833579  0.27635227  0.85497477     1.05900
Mn67       Mn  0.25237206  0.22753897  0.71762610     1.48600
O68         O  0.24302360  0.29781261  0.85266037    -0.88200
Mn69       Mn  0.18521959  0.37407696  0.77248028     1.49600
O70         O  0.14794585  0.38245493  0.69419127    -0.92000
C71         C  0.12993478  0.25889424  0.72465298     1.19000
C72         C  0.16685053  0.40820585  0.70289996     1.11100
Mn73       Mn  0.19360510  0.27947790  0.76585849     1.81000
O74         O  0.29028002  0.26175631  0.72441946    -0.97200
Mn75       Mn  0.14634986  0.32870740  0.70310908     1.49300
C76         C  0.10665357  0.35737891  0.76545010     1.07600
Mn77       Mn  0.28887879  0.27017820  0.77543300     1.49900
C78         C  0.32214382  0.33639175  0.79847760     1.10500
O79         O  0.19104164  0.34299416  0.81341833    -1.03000
O80         O  0.25810252  0.22288844  0.66422346    -0.92600
C81         C  0.17034214  0.32357617  0.82758748     1.21800
O82         O  0.25641040  0.22974627  0.77016877    -1.03400
O83         O  0.22552789  0.26301408  0.63732998    -0.90800
O84         O  0.32278210  0.31248919  0.77528378    -0.90400
O85         O  0.18595743  0.40805958  0.73007470    -0.90400
Mn86       Mn  0.18363486  0.26732463  0.67189474     1.47900
O87         O  0.29091010  0.30982836  0.69768090    -0.78900
C88         C  0.25964472  0.38686352  0.76029315     1.14900
O89         O  0.14397479  0.25579518  0.75450545    -0.77600
O90         O  0.22961053  0.34350540  0.66732855    -0.77200
Mn91       Mn  0.24230336  0.33737507  0.81525329     1.51100
O92         O  0.28903586  0.26980501  0.82979259    -0.89600
O93         O  0.18093130  0.31817324  0.66729557    -0.97100
O94         O  0.29605161  0.34157576  0.81838655    -0.92100
C95         C  0.20057469  0.33817423  0.65241347     1.12600
C96         C  0.09989824  0.01886822  0.33059846     0.79600
N97         N  0.10781902  0.04983898  0.31552792    -0.78700
C98         C  0.10235609  0.08030254  0.33281675     0.82100
N99         N  0.08890083  0.07957352  0.36582549    -0.78600
C100        C  0.08064416  0.04884212  0.38110051     0.82200
N101        N  0.08635843  0.01861652  0.36354689    -0.80300
C102        C  0.30037345  0.02251389  0.14554189     0.79600
N103        N  0.33187356  0.02196523  0.12857179    -0.78700
C104        C  0.34768803  0.05224043  0.11853586     0.82100
N105        N  0.33202078  0.08351515  0.12685169    -0.78600
C106        C  0.30036232  0.08466658  0.14371684     0.82200
N107        N  0.28474816  0.05395691  0.15277821    -0.80300
O108        O  0.25596023  0.81844874  0.14181128    -0.88800
C109        C  0.17088217  0.69717532  0.27317897     1.11300
O110        O  0.25616496  0.80717606  0.21972596    -1.36600
O111        O  0.14447871  0.73568946  0.20962369    -0.90200
O112        O  0.29892187  0.84852141  0.16661212    -0.90900
O113        O  0.21675265  0.88096911  0.20592022    -0.79700
O114        O  0.20461851  0.77170321  0.17629160    -1.01800
C115        C  0.14050673  0.84984708  0.27123906     1.21300
O116        O  0.22784108  0.83305098  0.27954634    -1.36700
Mn117      Mn  0.25017105  0.78169322  0.27039048     1.82100
O118        O  0.15467152  0.85471909  0.24155239    -0.78800
O119        O  0.11916148  0.77927710  0.23917558    -0.88200
C120        C  0.20659417  0.75745009  0.33119552     1.12400
C121        C  0.11893854  0.75624707  0.21502987     1.07100
O122        O  0.30120524  0.79174466  0.29436695    -0.79700
O123        O  0.19815028  0.77758102  0.24798256    -1.33400
O124        O  0.30013251  0.84209495  0.27203629    -0.99000
C125        C  0.19501391  0.90824155  0.30694286     1.05900
Mn126      Mn  0.15452518  0.77738456  0.28110785     1.48600
O127        O  0.21993783  0.90980646  0.28499832    -0.88200
Mn128      Mn  0.29894595  0.84080888  0.22082481     1.49600
O129        O  0.30936667  0.77231329  0.17106779    -0.92000
C130        C  0.18206429  0.79065536  0.16338848     1.19000
C131        C  0.33273247  0.77367545  0.19429434     1.11100
Mn132      Mn  0.20443370  0.83009929  0.22765107     1.81000
O133        O  0.18807905  0.78025921  0.31899067    -0.97200
Mn134      Mn  0.25614042  0.77548207  0.17506567     1.49300
C135        C  0.27785115  0.84317442  0.14146192     1.07600
Mn136      Mn  0.19400904  0.83071169  0.32301059     1.49900
C137        C  0.26038572  0.85007554  0.36082617     1.10500
O138        O  0.26618720  0.87912963  0.23042600    -1.03000
O139        O  0.15190439  0.72341710  0.28051389    -0.92600
C140        C  0.24657370  0.89439834  0.21036641     1.21800
O141        O  0.15458719  0.82801927  0.28985528    -1.03400
O142        O  0.19625807  0.69828275  0.25186601    -0.90800
O143        O  0.23575767  0.82801222  0.35840802    -0.90400
O144        O  0.33332046  0.79784155  0.21726269    -0.90400
Mn145      Mn  0.19811117  0.73564873  0.21278378     1.47900
O146        O  0.23728134  0.75485372  0.31888835    -0.78900
C147        C  0.31513802  0.82162413  0.29128112     1.14900
O148        O  0.17833315  0.82049451  0.17741815    -0.77600
O149        O  0.27340418  0.73141262  0.25586461    -0.77200
Mn150      Mn  0.26226720  0.87509053  0.28176851     1.51100
O151        O  0.19331182  0.88419562  0.32956472    -0.89600
O152        O  0.24919887  0.73472066  0.20643790    -0.97100
O153        O  0.26730807  0.87175374  0.33643368    -0.92100
C154        C  0.26926142  0.71873507  0.22539719     1.12600
C155        C  0.95833301  0.19970158  0.33614385     0.79600
N156        N  0.98825757  0.20363528  0.31767387    -0.78700
C157        C  0.01917862  0.19177260  0.33058817     0.82100
N158        N  0.02026003  0.17630468  0.36316909    -0.78600
C159        C  0.98995296  0.17152956  0.38153315     0.82200
N160        N  0.95958199  0.18342785  0.36772018    -0.80300
C161        C  0.92310813  0.37874710  0.13003385     0.79600
N162        N  0.95343837  0.36176919  0.13747981    -0.78700
C163        C  0.98451731  0.37609356  0.12897439     0.82100
N164        N  0.98504957  0.40767834  0.11292588    -0.78600
C165        C  0.95523620  0.42513764  0.10532187     0.82200
N166        N  0.92398827  0.41089315  0.11432565    -0.80300
O167        O  0.80380054  0.26470998  0.32022946    -0.88800
C168        C  0.61038839  0.25046781  0.27826153     1.11300
O169        O  0.74977741  0.30533227  0.27823239    -1.36600
O170        O  0.68840603  0.19632981  0.24246694    -0.90200
O171        O  0.82991850  0.29994527  0.28193000    -0.90900
O172        O  0.79186090  0.29394797  0.20245633    -0.79700
O173        O  0.74203680  0.23368274  0.28603552    -1.01800
C174        C  0.70252849  0.26311556  0.16283602     1.21300
O175        O  0.72029892  0.33488712  0.21958311    -1.36700
Mn176      Mn  0.69808176  0.32773332  0.27148664     1.82100
O177        O  0.73211142  0.25978376  0.17670278    -0.78800
O178        O  0.64965130  0.22238973  0.20736701    -0.88200
C179        C  0.63486951  0.34794836  0.23133087     1.12400
C180        C  0.66730432  0.19578399  0.21662588     1.07100
O181        O  0.70879767  0.37708581  0.29533914    -0.79700
O182        O  0.69120536  0.27626605  0.24853679    -1.33400
O183        O  0.75819616  0.37731836  0.27079906    -0.99000
C184        C  0.75008776  0.36058175  0.13832078     1.05900
Mn185      Mn  0.64900200  0.27623457  0.21339357     1.48600
O186        O  0.76018540  0.37693160  0.16542677    -0.88200
Mn187      Mn  0.79203582  0.33988889  0.27863708     1.49600
O188        O  0.75345709  0.30960433  0.35892813    -0.92000
C189        C  0.76330564  0.22029306  0.26663025     1.19000
C190        C  0.77481884  0.33496638  0.35994034     1.11100
Mn191      Mn  0.74279748  0.28320365  0.22625148     1.81000
O192        O  0.64824477  0.32719498  0.21112757    -0.97200
Mn193      Mn  0.74992960  0.27029309  0.32043434     1.49300
C194        C  0.83057606  0.27439761  0.30336544     1.07600
Mn195      Mn  0.68535557  0.33533757  0.17716237     1.49900
C196        C  0.68964168  0.41581351  0.19531001     1.10500
O197        O  0.79255863  0.34325355  0.22732551    -1.03000
O198        O  0.61109144  0.27226366  0.25302084    -0.92600
C199        C  0.80554970  0.32350262  0.20592156     1.21800
O200        O  0.68257217  0.28428984  0.17591952    -1.03400
O201        O  0.63730539  0.23367945  0.28817160    -0.90800
O202        O  0.67984000  0.38917238  0.17823065    -0.90400
O203        O  0.79182617  0.34481954  0.33310153    -0.90400
Mn204      Mn  0.69127886  0.23373854  0.28295957     1.47900
O205        O  0.64868471  0.35127189  0.26102674    -0.78900
C206        C  0.73842456  0.39062793  0.29193035     1.14900
O207        O  0.76680939  0.23377159  0.23678913    -0.77600
O208        O  0.67440914  0.31659318  0.32113585    -0.77200
Mn209      Mn  0.75510136  0.37704263  0.21961719     1.51100
O210        O  0.72467946  0.33929590  0.13889377    -0.89600
O211        O  0.69905059  0.26726609  0.32064342    -0.97100
O212        O  0.71537494  0.41502554  0.21643076    -0.92100
C213        C  0.67787284  0.28662371  0.33431522     1.12600
C214        C  0.64776724  0.18561044  0.98376597     0.79600
N215        N  0.61633659  0.16969485  0.98392128    -0.78700
C216        C  0.60000973  0.16153720  0.01421334     0.82100
N217        N  0.61523201  0.16993651  0.04536744    -0.78600
C218        C  0.64721225  0.18563820  0.04565065     0.82200
N219        N  0.66307216  0.19364471  0.01479382    -0.80300
C220        C  0.82286287  0.39514598  0.00999895     0.79600
N221        N  0.83927533  0.42638991  0.00960915    -0.78700
C222        C  0.85193388  0.44025641  0.97961698     0.82100
N223        N  0.84787695  0.42238583  0.94879125    -0.78600
C224        C  0.83233315  0.39013316  0.94905441     0.82200
N225        N  0.81960619  0.37707443  0.97960489    -0.80300
C226        C  0.93803115  0.19798292  0.67312017     0.79600
N227        N  0.96874224  0.20630405  0.68918319    -0.78700
C228        C  0.99996722  0.19774773  0.67405921     0.82100
N229        N  0.00026331  0.18018032  0.64286477    -0.78600
C230        C  0.97009938  0.17126367  0.62645138     0.82200
N231        N  0.93894872  0.18085201  0.64142162    -0.80300
C232        C  0.00232875  0.38783595  0.86546189     0.79600
N233        N  0.00337620  0.41955954  0.88138323    -0.78700
C234        C  0.97367805  0.43528057  0.89252121     0.82100
N235        N  0.94262750  0.41927809  0.88727730    -0.78600
C236        C  0.94137571  0.38712631  0.87182042     0.82200
N237        N  0.97139726  0.37180214  0.86099534    -0.80300
O238        O  0.80019152  0.37571130  0.78650465    -0.88800
C239        C  0.61382969  0.32926028  0.80346684     1.11300
O240        O  0.74812427  0.32933448  0.74991491    -1.36600
O241        O  0.69246052  0.28920031  0.85718232    -0.90200
O242        O  0.82664784  0.33130900  0.75934905    -0.90900
O243        O  0.79393656  0.25379606  0.75838467    -0.79700
O244        O  0.74186186  0.33753864  0.82168415    -1.01800
C245        C  0.70375914  0.21148231  0.78938227     1.21300
O246        O  0.72036236  0.27184193  0.71947039    -1.36700
Mn247      Mn  0.69646916  0.32273189  0.72751463     1.82100
O248        O  0.73310733  0.22584895  0.79399555    -0.78800
O249        O  0.65112100  0.25624558  0.83311885    -0.88200
C250        C  0.63259524  0.28088631  0.70765291     1.12400
C251        C  0.67189916  0.26339641  0.85817766     1.07100
O252        O  0.70820686  0.34897337  0.67847573    -0.79700
O253        O  0.69126396  0.29823237  0.77872696    -1.33400
O254        O  0.75811949  0.32523864  0.67906644    -0.99000
C255        C  0.75491899  0.19567204  0.69259684     1.05900
Mn256      Mn  0.64979815  0.26293198  0.77847500     1.48600
O257        O  0.75876294  0.22096727  0.67166999    -0.88200
Mn258      Mn  0.79155273  0.33059628  0.71687567     1.49600
O259        O  0.74613031  0.40812248  0.74262089    -0.92000
C260        C  0.76521431  0.31918722  0.83420142     1.19000
C261        C  0.77133711  0.40987463  0.72113704     1.11100
Mn262      Mn  0.74353707  0.27695320  0.77136678     1.81000
O263        O  0.64783043  0.26062991  0.72710599    -0.97200
Mn264      Mn  0.74650645  0.37244693  0.78353374     1.49300
C265        C  0.82610394  0.35536163  0.78254168     1.07600
Mn266      Mn  0.68701953  0.22876802  0.71779423     1.49900
C267        C  0.68833657  0.25231250  0.63867336     1.10500
O268        O  0.79290956  0.27986329  0.70984228    -1.03000
O269        O  0.61378959  0.30438325  0.78134174    -0.92600
C270        C  0.80755066  0.25860364  0.72852462     1.21800
O271        O  0.68393996  0.22599292  0.76908222    -1.03400
O272        O  0.63705224  0.33176273  0.82672591    -0.90800
O273        O  0.68147751  0.23091128  0.66326049    -0.90400
O274        O  0.79224910  0.38473224  0.71520289    -0.90400
Mn275      Mn  0.69037992  0.33102023  0.82265505     1.47900
O276        O  0.64618406  0.31078686  0.70401360    -0.78900
C277        C  0.73892113  0.34711843  0.66624680     1.14900
O278        O  0.76915374  0.28893554  0.82107937    -0.77600
O279        O  0.67129390  0.37230233  0.74058441    -0.77200
Mn280      Mn  0.75442128  0.27447034  0.67640285     1.51100
O281        O  0.72981842  0.19439448  0.71443094    -0.89600
O282        O  0.69559079  0.37085263  0.78994772    -0.97100
O283        O  0.71307265  0.27431114  0.64058226    -0.92100
C284        C  0.67497797  0.38570676  0.77072031     1.12600
C285        C  0.11467305  0.71964143  0.98693779     0.79600
N286        N  0.12001216  0.73676046  0.01750862    -0.78700
C287        C  0.11064591  0.72230790  0.04852910     0.82100
N288        N  0.09630252  0.68941175  0.04899953    -0.78600
C289        C  0.09008386  0.67234149  0.01798979     0.82200
N290        N  0.09963716  0.68769998  0.98748701    -0.80300
C291        C  0.30023283  0.92115932  0.01524866     0.79600
N292        N  0.33125932  0.93778718  0.01368923    -0.78700
C293        C  0.34623834  0.94601333  0.98268888     0.82100
N294        N  0.32997204  0.93707023  0.95223973    -0.78600
C295        C  0.29822996  0.92090911  0.95343061     0.82200
N296        N  0.28381730  0.91279270  0.98493309    -0.69500
C297        C  0.09994471  0.00498323  0.67879695     0.79600
N298        N  0.08391507  0.00520832  0.64673729    -0.78700
C299        C  0.07628270  0.03621619  0.63085465     0.82100
N300        N  0.08613873  0.06643505  0.64644921    -0.78600
C301        C  0.10290935  0.06642420  0.67781954     0.82200
N302        N  0.10978774  0.03553980  0.69379368    -0.80300
C303        C  0.30725834  0.04144691  0.85543980     0.79600
N304        N  0.33947817  0.04180160  0.87006443    -0.78700
C305        C  0.35466485  0.07202673  0.88011655     0.82100
N306        N  0.33717807  0.10290600  0.87512085    -0.78600
C307        C  0.30431530  0.10281344  0.86075594     0.82200
N308        N  0.28987131  0.07203836  0.85080664    -0.80300
O309        O  0.33066996  0.83764827  0.74647718    -0.88800
C310        C  0.19021590  0.75014346  0.86047924     1.11300
O311        O  0.25050610  0.83286044  0.75107454    -1.36600
O312        O  0.26274762  0.71975643  0.82154020    -0.90200
O313        O  0.30408424  0.87537571  0.71062329    -0.90900
O314        O  0.26752065  0.79244462  0.67888560    -0.79700
O315        O  0.29400236  0.78218802  0.78857917    -1.01800
C316        C  0.20483779  0.71741534  0.70840997     1.21300
O317        O  0.19214805  0.80344152  0.72113574    -1.36700
Mn318      Mn  0.19887404  0.82550139  0.77340430     1.82100
O319        O  0.23408538  0.73151524  0.70432582    -0.78800
O320        O  0.22619851  0.69390089  0.78429373    -0.88200
C321        C  0.13552058  0.78528212  0.79189526     1.12400
C322        C  0.25234596  0.69308641  0.80485687     1.07100
O323        O  0.17476362  0.87482122  0.76319656    -0.79700
O324        O  0.22167537  0.77391068  0.77996419    -1.33400
O325        O  0.19960455  0.87524985  0.71401482    -0.99000
C326        C  0.16868799  0.77353058  0.63906005     1.05900
Mn327      Mn  0.18676030  0.73192344  0.78003778     1.48600
O328        O  0.18819048  0.80033019  0.64026297    -0.88200
Mn329      Mn  0.25030599  0.87530802  0.71642590     1.49600
O330        O  0.29146881  0.88741130  0.79252960    -0.92000
C331        C  0.30726552  0.76149094  0.76827631     1.19000
C332        C  0.27387955  0.91391219  0.78260153     1.11100
Mn333      Mn  0.24393524  0.78126928  0.72815723     1.81000
O334        O  0.14946940  0.76561042  0.77109207    -0.97200
Mn335      Mn  0.29269497  0.83330102  0.78616761     1.49300
C336        C  0.33098900  0.85854325  0.72043337     1.07600
Mn337      Mn  0.15075872  0.76785214  0.71995064     1.49900
C338        C  0.11086396  0.83309083  0.69533442     1.10500
O339        O  0.24263202  0.84176684  0.67882981    -1.03000
O340        O  0.18020991  0.73277443  0.83397131    -0.92600
C341        C  0.26401655  0.82228302  0.66553379     1.21800
O342        O  0.18503895  0.73130986  0.72904396    -1.03400
O343        O  0.21682089  0.76990588  0.85985529    -0.90800
O344        O  0.11178475  0.80638432  0.71524853    -0.90400
O345        O  0.25332932  0.91297592  0.75638705    -0.90400
Mn346      Mn  0.25665058  0.77361575  0.82223216     1.47900
O347        O  0.14948613  0.81455199  0.79650915    -0.78900
C348        C  0.17851425  0.88870320  0.73360788     1.14900
O349        O  0.29334599  0.75816292  0.73865890    -0.77600
O350        O  0.20935445  0.84881480  0.82338328    -0.77200
Mn351      Mn  0.19169165  0.83897017  0.67928240     1.51100
O352        O  0.15252428  0.76208595  0.66577018    -0.89600
O353        O  0.25880708  0.82448803  0.82302427    -0.97100
O354        O  0.13776490  0.84456003  0.67982029    -0.92100
C355        C  0.23910520  0.84527634  0.83688618     1.12600
C356        C  0.94076124  0.72445751  0.12355625     0.79600
N357        N  0.94098158  0.69130486  0.11081049    -0.78700
C358        C  0.97117173  0.67326510  0.10715726     0.82100
N359        N  0.00150825  0.68836802  0.11662966    -0.78600
C360        C  0.00178898  0.72169143  0.12920153     0.82200
N361        N  0.97131740  0.73939386  0.13274192    -0.80300
C362        C  0.94459028  0.90897133  0.32094422     0.79600
N363        N  0.94375974  0.92594607  0.35263632    -0.78700
C364        C  0.97374270  0.93501645  0.36966170     0.82100
N365        N  0.00514149  0.92591041  0.35485522    -0.78600
C366        C  0.00677960  0.90929343  0.32289225     0.82200
N367        N  0.97627881  0.90094758  0.30619134    -0.80300
C368        C  0.83650957  0.04093614  0.32366509     0.79600
N369        N  0.82873838  0.07181004  0.30802465    -0.78700
C370        C  0.83855433  0.10243759  0.32300368     0.82100
N371        N  0.85543772  0.10216961  0.35464634    -0.78600
C372        C  0.86362482  0.07107011  0.37009774     0.82200
N373        N  0.85388248  0.04094157  0.35453643    -0.80300
C374        C  0.64192544  0.00750245  0.13576252     0.79600
N375        N  0.65587199  0.03850793  0.14575915    -0.78700
C376        C  0.63871669  0.06897726  0.13952925     0.82100
N377        N  0.60739593  0.06809596  0.12297797    -0.78600
C378        C  0.59260240  0.03761805  0.11311698     0.82200
N379        N  0.60964474  0.00691408  0.12017033    -0.80300
O380        O  0.64193028  0.77293801  0.17757424    -0.88800
C381        C  0.82897800  0.74959484  0.21575353     1.11300
O382        O  0.69646767  0.80627733  0.22361344    -1.36600
O383        O  0.75132084  0.69760874  0.25836786    -0.90200
O384        O  0.61718655  0.79900243  0.22362560    -0.90900
O385        O  0.65460312  0.79561254  0.30058599    -0.79700
O386        O  0.70062738  0.73538124  0.21240971    -1.01800
C387        C  0.74632422  0.76411675  0.33942591     1.21300
O388        O  0.72787461  0.83461441  0.28123941    -1.36700
Mn389      Mn  0.74864058  0.82766828  0.22846436     1.82100
O390        O  0.71654612  0.76035112  0.32551525    -0.78800
O391        O  0.79539312  0.71960795  0.28967109    -0.88200
C392        C  0.81510541  0.84544593  0.26738898     1.12400
C393        C  0.77366816  0.69541472  0.28294488     1.07100
O394        O  0.73648510  0.87740565  0.20404870    -0.79700
O395        O  0.75429706  0.77585365  0.25119272    -1.33400
O396        O  0.68744310  0.87838468  0.23072389    -0.99000
C397        C  0.70117063  0.86040230  0.36180276     1.05900
Mn398      Mn  0.79772949  0.77405244  0.28444802     1.48600
O399        O  0.69103754  0.87829215  0.33593256    -0.88200
Mn400      Mn  0.65300513  0.83980580  0.22492910     1.49600
O401        O  0.69558815  0.81663764  0.14552973    -0.92000
C402        C  0.67917033  0.72267662  0.23197603     1.19000
C403        C  0.67199570  0.84023314  0.14574427     1.11100
Mn404      Mn  0.70387743  0.78354021  0.27524345     1.81000
O405        O  0.80109848  0.82513059  0.28753244    -0.97200
Mn406      Mn  0.69562912  0.77383784  0.17959351     1.49300
C407        C  0.61615360  0.77807776  0.19772137     1.07600
Mn408      Mn  0.76496281  0.83459610  0.32224056     1.49900
C409        C  0.76130846  0.91431532  0.30149010     1.10500
O410        O  0.65422827  0.84507198  0.27644204    -1.03000
O411        O  0.83080015  0.77120922  0.24096520    -0.92600
C412        C  0.64058322  0.82542485  0.29740105     1.21800
O413        O  0.76667952  0.78336789  0.32438113    -1.03400
O414        O  0.80473069  0.72751501  0.21350706    -0.90800
O415        O  0.77170856  0.88868691  0.32013409    -0.90400
O416        O  0.65051446  0.84375723  0.17087284    -0.90400
Mn417      Mn  0.75137157  0.73291666  0.21689528     1.47900
O418        O  0.79968828  0.85034316  0.23839924    -0.78900
C419        C  0.70657044  0.89112579  0.20808830     1.14900
O420        O  0.67805916  0.73463355  0.26302608    -0.77600
O421        O  0.77132033  0.81510432  0.17750841    -0.77200
Mn422      Mn  0.69352397  0.87752331  0.28275656     1.51100
O423        O  0.72660638  0.83902470  0.36088494    -0.89600
O424        O  0.74605641  0.76653731  0.17867615    -0.97100
O425        O  0.73389634  0.91331188  0.28289449    -0.92100
C426        C  0.76689276  0.78524602  0.16392660     1.12600
C427        C  0.64227212  0.92838129  0.02850753     0.79600
N428        N  0.60924133  0.94129230  0.02641915    -0.78700
C429        C  0.59494044  0.94935125  0.99503791     0.82100
N430        N  0.61362692  0.94395981  0.96540761    -0.78600
C431        C  0.64673888  0.93094635  0.96697745     0.82200
N432        N  0.66073809  0.92320199  0.99864820    -0.80300
C433        C  0.82306295  0.72799163  0.97060262     0.79600
N434        N  0.81490573  0.74307205  0.00203476    -0.78700
C435        C  0.82402284  0.72736794  0.03285348     0.82100
N436        N  0.84188902  0.69612727  0.03193268    -0.78600
C437        C  0.85107981  0.68105248  0.00058729     0.82200
N438        N  0.84108248  0.69700799  0.97018797    -0.80300
C439        C  0.84754952  0.08134140  0.67039161     0.79600
N440        N  0.83769962  0.05029804  0.68394300    -0.78700
C441        C  0.84248552  0.02026572  0.66572741     0.82100
N442        N  0.85700674  0.02142141  0.63314239    -0.78600
C443        C  0.86732580  0.05230022  0.61940143     0.82200
N444        N  0.86250915  0.08202374  0.63803625    -0.80300
C445        C  0.64862176  0.08352615  0.85264103     0.79600
N446        N  0.66326268  0.05180171  0.84477721    -0.78700
C447        C  0.64649524  0.02149802  0.85293267     0.82100
N448        N  0.61469987  0.02326439  0.86939574    -0.78600
C449        C  0.59997360  0.05476372  0.87828327     0.82200
N450        N  0.61694729  0.08469068  0.86930205    -0.80300
C451        C  0.98106102  0.90282479  0.66080006     0.79600
N452        N  0.98098036  0.91958039  0.62950149    -0.78700
C453        C  0.95123667  0.93249934  0.61532499     0.82100
N454        N  0.92046398  0.92850063  0.63306019    -0.78600
C455        C  0.92031879  0.91224073  0.66523904     0.82200
N456        N  0.95067356  0.89931868  0.67861032    -0.80300
C457        C  0.95456383  0.73138924  0.86680997     0.79600
N458        N  0.98485864  0.74724449  0.85794269    -0.78700
C459        C  0.01605853  0.73239814  0.86653018     0.82100
N460        N  0.01696236  0.70073844  0.88318629    -0.78600
C461        C  0.98663573  0.68510101  0.89265509     0.82200
N462        N  0.95595326  0.70056957  0.88429539    -0.80300
N463        N  0.95235875  0.98033594  0.44984857    -0.06700
N464        N  0.94207675  0.96610470  0.41973147    -0.58800
N465        N  0.97762536  0.97287075  0.53614373    -0.06400
N466        N  0.98548521  0.95644821  0.56557870    -0.60900
N467        N  0.94359679  0.97611911  0.53297164    -0.06000
N468        N  0.92760237  0.96208094  0.56050235    -0.58800
N469        N  0.98636741  0.97668501  0.45346723    -0.05700
N470        N  0.99978974  0.96010322  0.42578131    -0.61300
C471        C  0.97191646  0.95343875  0.40477491     0.95500
C472        C  0.95417772  0.94972021  0.58056318     0.95300
N473        N  0.04202836  0.05968938  0.54805492    -0.06900
N474        N  0.05553312  0.06884063  0.57853520    -0.59400
N475        N  0.04659132  0.02991364  0.46434323    -0.05000
N476        N  0.05848470  0.01856418  0.43384766    -0.60600
N477        N  0.04954483  0.06418677  0.46653246    -0.06900
N478        N  0.06348966  0.07667561  0.43746643    -0.59700
N479        N  0.03917449  0.02537722  0.54608690    -0.04600
N480        N  0.05081929  0.01063841  0.57540472    -0.60700
Mn481      Mn  0.01354689  0.00008055  0.50016001     1.18400
C482        C  0.06092582  0.03816115  0.59535297     0.97600
C483        C  0.06893589  0.04794486  0.41752019     0.98200
N484        N  0.89473682  0.03994762  0.53207136    -0.06900
N485        N  0.88231918  0.02653355  0.56142778    -0.63200
N486        N  0.90369419  0.08010684  0.45326745    -0.05700
N487        N  0.89085887  0.09556863  0.42488692    -0.63900
N488        N  0.90109851  0.04586228  0.45058998    -0.06400
N489        N  0.88647178  0.03738778  0.42049970    -0.63500
N490        N  0.89801451  0.07413569  0.53518282    -0.05300
N491        N  0.88794418  0.08440819  0.56675788    -0.64200
Mn492      Mn  0.92162691  0.00975670  0.49082248     1.10700
C493        C  0.87826813  0.05447447  0.58269283     0.98800
C494        C  0.88023956  0.06848564  0.40475376     0.98900
N495        N  0.99962479  0.12831961  0.46416978    -0.06400
N496        N  0.01505111  0.14219852  0.43617820    -0.61800
N497        N  0.95730999  0.12832399  0.54403596    -0.05800
N498        N  0.94384483  0.14524322  0.57140152    -0.58500
N499        N  0.99134114  0.12507607  0.54731760    -0.07100
N500        N  0.00169427  0.13986655  0.57706640    -0.61400
N501        N  0.96551668  0.13183086  0.46180669    -0.06100
N502        N  0.95709055  0.14819929  0.43250344    -0.58600
Mn503      Mn  0.02201824  0.09517898  0.50683798     1.20200
Mn504      Mn  0.93001778  0.10466723  0.49851028     1.10100
Cl505      Cl  0.97186225  0.05242222  0.49897729    -0.86500
C506        C  0.98804169  0.15472112  0.41669984     0.95800
C507        C  0.97178834  0.15242562  0.59193611     0.95600
N508        N  0.94643233  0.50913115  0.06725977    -0.06700
N509        N  0.93113572  0.48076789  0.07971388    -0.58800
N510        N  0.98596814  0.58748525  0.07693601    -0.06400
N511        N  0.99874820  0.61644808  0.09067918    -0.60900
N512        N  0.95174344  0.59010136  0.07397889    -0.06000
N513        N  0.94074999  0.62073152  0.08566515    -0.58800
N514        N  0.98067063  0.50623987  0.06974287    -0.05700
N515        N  0.98923187  0.47587119  0.08387565    -0.61300
C516        C  0.95817935  0.46030389  0.08997307     0.95500
C517        C  0.97023554  0.63674470  0.09601458     0.95300
N518        N  0.05177793  0.59212635  0.99224134    -0.06900
N519        N  0.06741247  0.62169052  0.98409463    -0.59400
N520        N  0.04576509  0.50619476  0.01773062    -0.05000
N521        N  0.06066918  0.47627302  0.02766963    -0.60600
N522        N  0.04861792  0.50991893  0.98350385    -0.06900
N523        N  0.06523152  0.48261933  0.96955367    -0.59700
N524        N  0.04911806  0.58910075  0.02655227    -0.04600
N525        N  0.06283541  0.61684271  0.04237302    -0.60700
Mn526      Mn  0.01631640  0.54675091  0.04911170     1.18400
C527        C  0.07439136  0.63690708  0.01545053     0.97600
C528        C  0.07281473  0.46168359  0.99731570     0.98200
N529        N  0.89710453  0.60022686  0.01399026    -0.06900
N530        N  0.87942021  0.62714653  0.02737172    -0.63200
N531        N  0.89637745  0.52121082  0.97137120    -0.05700
N532        N  0.88168832  0.49410489  0.95547804    -0.63900
N533        N  0.89344890  0.51841116  0.00563686    -0.06400
N534        N  0.87658517  0.48957450  0.01378980    -0.63500
N535        N  0.89991178  0.60340896  0.97970988    -0.05300
N536        N  0.88401583  0.63252436  0.96912170    -0.64200
Mn537      Mn  0.92122543  0.55441167  0.04131510     1.10700
C538        C  0.87126273  0.64722789  0.99911757     0.98800
C539        C  0.86927675  0.47464702  0.98238209     0.98900
N540        N  0.99388875  0.51927305  0.92413573    -0.06400
N541        N  0.00468231  0.48817203  0.91335259    -0.61800
N542        N  0.96441027  0.60317257  0.92800193    -0.05800
N543        N  0.95493895  0.63337978  0.91425554    -0.58500
N544        N  0.99868110  0.60109344  0.93038514    -0.07100
N545        N  0.01313694  0.63006877  0.91814271    -0.61400
N546        N  0.95961165  0.52169684  0.92168761    -0.06100
N547        N  0.94662074  0.49221157  0.90937206    -0.58600
Mn548      Mn  0.02434511  0.55577921  0.95640167     1.20200
Mn549      Mn  0.92936473  0.56278867  0.94884476     1.10100
Cl550      Cl  0.97285850  0.55497045  0.99897227    -0.86500
C551        C  0.97496901  0.47168010  0.90432716     0.95800
C552        C  0.98539730  0.64990686  0.90822554     0.95600
N553        N  0.43728838  0.13078921  0.98468540    -0.06700
N554        N  0.40781497  0.14342125  0.97169385    -0.58800
N555        N  0.51652408  0.12360739  0.02397201    -0.06400
N556        N  0.54502978  0.13593622  0.03915295    -0.60900
N557        N  0.51880412  0.12643624  0.98956824    -0.06000
N558        N  0.54877997  0.14070135  0.98073203    -0.58800
N559        N  0.43467561  0.12713783  0.01902986    -0.05700
N560        N  0.40333546  0.13707215  0.02983040    -0.61300
C561        C  0.38699460  0.14719231  0.00006984     0.95500
C562        C  0.56483981  0.14651998  0.01179657     0.95300
N563        N  0.50940231  0.02707819  0.07274287    -0.06900
N564        N  0.53801513  0.01212361  0.08578047    -0.59400
N565        N  0.42862278  0.06702886  0.07380144    -0.05000
N566        N  0.40132609  0.07964814  0.09135779    -0.60600
N567        N  0.42645640  0.03284670  0.07071233    -0.06900
N568        N  0.39758477  0.02157877  0.08633156    -0.59700
N569        N  0.51102141  0.06129254  0.07590453    -0.04600
N570        N  0.54060680  0.07026615  0.09111172    -0.60700
Mn571      Mn  0.47269719  0.09589727  0.04925099     1.18400
C572        C  0.55719803  0.03947326  0.09734470     0.97600
C573        C  0.38201552  0.05108691  0.09922522     0.98200
N574        N  0.52033858  0.07521690  0.92402188    -0.06900
N575        N  0.54979704  0.08613374  0.90928735    -0.63200
N576        N  0.43562237  0.04735050  0.91769375    -0.05700
N577        N  0.40622742  0.03871892  0.90194829    -0.63900
N578        N  0.43766396  0.08154227  0.92076645    -0.06400
N579        N  0.40948198  0.09683297  0.90725275    -0.63500
N580        N  0.51773087  0.04106616  0.92066203    -0.05300
N581        N  0.54531231  0.02815002  0.90381980    -0.64200
Mn582      Mn  0.47898474  0.10489616  0.95390780     1.10700
C583        C  0.56523909  0.05645226  0.89667013     0.98800
C584        C  0.39017621  0.06972270  0.89540442     0.98900
N585        N  0.42750475  0.98215394  0.00492954    -0.06400
N586        N  0.39790784  0.96764713  0.01443579    -0.61800
N587        N  0.51078868  0.98055897  0.97457143    -0.05800
N588        N  0.54180709  0.96993875  0.96346551    -0.58500
N589        N  0.50853769  0.97735535  0.00896870    -0.07100
N590        N  0.53790851  0.96444526  0.02174589    -0.61400
N591        N  0.42908866  0.98497945  0.97046042    -0.06100
N592        N  0.40034414  0.97232657  0.95592398    -0.58600
Mn593      Mn  0.46760836  0.00353295  0.04016781     1.20200
Mn594      Mn  0.47318207  0.01236611  0.94469851     1.10100
Cl595      Cl  0.47309283  0.05416010  0.99697082    -0.86500
C596        C  0.38122340  0.96161959  0.98380850     0.95800
C597        C  0.55827105  0.95994764  0.99318070     0.95600
O598        O  0.75306344  0.69575406  0.74385973    -0.88800
C599        C  0.66925300  0.83304392  0.85948785     1.11300
O600        O  0.74985781  0.77290775  0.75341548    -1.36600
O601        O  0.63796762  0.76030185  0.82582661    -0.90200
O602        O  0.79749575  0.72100582  0.71673680    -0.90900
O603        O  0.71126116  0.75452518  0.67970916    -0.79700
O604        O  0.69994854  0.72725533  0.79158372    -1.01800
C605        C  0.63541441  0.82014925  0.70892294     1.21300
O606        O  0.71974479  0.83042340  0.72480747    -1.36700
Mn607      Mn  0.74221557  0.82406757  0.77667940     1.82100
O608        O  0.64890167  0.79001754  0.70534992    -0.78800
O609        O  0.61377041  0.79152636  0.78279218    -0.88200
C610        C  0.69972896  0.88777561  0.79732190     1.12400
C611        C  0.61282597  0.76684809  0.80500701     1.07100
O612        O  0.79090834  0.84978791  0.76446761    -0.79700
O613        O  0.69142540  0.79999801  0.78252767    -1.33400
O614        O  0.79031449  0.82557684  0.71465346    -0.99000
C615        C  0.68665577  0.85452632  0.64637203     1.05900
Mn616      Mn  0.64799311  0.83327611  0.78344376     1.48600
O617        O  0.71009704  0.83073566  0.64640205    -0.88200
Mn618      Mn  0.79282991  0.77483290  0.71960618     1.49600
O619        O  0.80529969  0.73056473  0.79136612    -0.92000
C620        C  0.67985555  0.71316542  0.77127371     1.19000
C621        C  0.82945022  0.75257335  0.78611791     1.11100
Mn622      Mn  0.69847986  0.77823007  0.73030573     1.81000
O623        O  0.68043460  0.87293635  0.77694705    -0.97200
Mn624      Mn  0.75101825  0.72971113  0.78696138     1.49300
C625        C  0.77517574  0.69686150  0.71900010     1.07600
Mn626      Mn  0.68644805  0.87392451  0.72556400     1.49900
C627        C  0.74906636  0.91012851  0.69934576     1.10500
O628        O  0.75957547  0.77997889  0.68091331    -1.03000
O629        O  0.64494153  0.83380476  0.83724743    -0.92600
C630        C  0.74109186  0.75893719  0.66615876     1.21800
O631        O  0.64813646  0.83942242  0.73140783    -1.03400
O632        O  0.69131460  0.80810494  0.86009706    -0.90800
O633        O  0.72752680  0.90945052  0.72470995    -0.90400
O634        O  0.82776342  0.77536032  0.76182286    -0.90400
Mn635      Mn  0.69218943  0.76549754  0.82512609     1.47900
O636        O  0.72954727  0.87395129  0.80131890    -0.78900
C637        C  0.80307823  0.84751084  0.73364415     1.14900
O638        O  0.67600317  0.72751613  0.74153931    -0.77600
O639        O  0.76604251  0.81212106  0.82690600    -0.77200
Mn640      Mn  0.75250770  0.83060741  0.68115460     1.51100
O641        O  0.68325281  0.87620338  0.67139746    -0.89600
O642        O  0.74297677  0.76220768  0.82559129    -0.97100
O643        O  0.75390851  0.88445232  0.67890670    -0.92100
C644        C  0.76283896  0.78202589  0.84030154     1.12600
C645        C  0.34132969  0.87705177  0.54879828     0.79600
N646        N  0.35756141  0.90877119  0.54814628    -0.78700
C647        C  0.36482577  0.92417276  0.51680661     0.82100
N648        N  0.35464892  0.90843665  0.48672971    -0.78600
C649        C  0.33780261  0.87740229  0.48704616     0.82200
N650        N  0.33111621  0.86184725  0.51826124    -0.80300
C651        C  0.13250382  0.70340084  0.51022561     0.79600
N652        N  0.10080064  0.68796719  0.51024276    -0.78700
C653        C  0.08627676  0.67582277  0.48027683     0.82100
N654        N  0.10400488  0.67941509  0.44928249    -0.78600
C655        C  0.13642958  0.69457982  0.44904879     0.82200
N656        N  0.15014252  0.70667264  0.47959420    -0.80300
C657        C  0.80986631  0.40875606  0.48795794     0.79600
N658        N  0.79228029  0.40441989  0.51855671    -0.78700
C659        C  0.80587414  0.41592419  0.54944813     0.82100
N660        N  0.83804248  0.43161892  0.54963541    -0.78600
C661        C  0.85556887  0.43648281  0.51875051     0.82200
N662        N  0.84122044  0.42485068  0.48852493    -0.80300
C663        C  0.60743760  0.22801081  0.51435526     0.79600
N664        N  0.61420527  0.24386379  0.48337615    -0.78700
C665        C  0.60386556  0.22932435  0.45265500     0.82100
N666        N  0.58709326  0.19782377  0.45288796    -0.78600
C667        C  0.57956020  0.18203181  0.48406477     0.82200
N668        N  0.59007969  0.19720057  0.51441606    -0.80300
C669        C  0.60163014  0.88585317  0.46797948     0.79600
N670        N  0.60783502  0.86983752  0.49895685    -0.78700
C671        C  0.59812665  0.88504909  0.52955965     0.82100
N672        N  0.58231950  0.91702005  0.52879960    -0.78600
C673        C  0.57548344  0.93297551  0.49785259     0.82200
N674        N  0.58510692  0.91730828  0.46758131    -0.80300
C675        C  0.79704776  0.70153624  0.53400209     0.79600
N676        N  0.78149874  0.71110999  0.50315641    -0.78700
C677        C  0.79703291  0.70378578  0.47166944     0.82100
N678        N  0.82823344  0.68619078  0.47132462    -0.78600
C679        C  0.84410802  0.67593901  0.50166663     0.82200
N680        N  0.82863176  0.68435288  0.53301001    -0.80300
C681        C  0.44056143  0.42054582  0.83155026     0.79600
N682        N  0.44231782  0.43481446  0.86420045    -0.78700
C683        C  0.47349223  0.44332040  0.87842336     0.82100
N684        N  0.50310274  0.43692850  0.86014079    -0.78600
C685        C  0.50176792  0.42255855  0.82751596     0.82200
N686        N  0.47041879  0.41445852  0.81354882    -0.80300
C687        C  0.50131382  0.22656849  0.64942262     0.79600
N688        N  0.50149037  0.19556972  0.63134409    -0.78700
C689        C  0.47113846  0.17953078  0.62198036     0.82100
N690        N  0.44012501  0.19461323  0.63178377    -0.78600
C691        C  0.43921411  0.22580821  0.64962187     0.82200
N692        N  0.46998454  0.24165197  0.65812681    -0.80300
C693        C  0.44536793  0.87900583  0.34945348     0.79600
N694        N  0.47722150  0.86426199  0.34216396    -0.78700
C695        C  0.50749121  0.88046728  0.35188213     0.82100
N696        N  0.50540342  0.91171333  0.36951574    -0.78600
C697        C  0.47387598  0.92660836  0.37771968     0.82200
N698        N  0.44411374  0.91014553  0.36728164    -0.80300
C699        C  0.44339112  0.68024863  0.16702593     0.79600
N700        N  0.47444045  0.69128821  0.17937883    -0.78700
C701        C  0.50373757  0.68838635  0.15988360     0.82100
N702        N  0.50199869  0.67372391  0.12744170    -0.78600
C703        C  0.47114901  0.66195600  0.11491222     0.82200
N704        N  0.44192153  0.66561883  0.13454579    -0.80300
C705        C  0.79605056  0.50878789  0.36511829     0.79600
N706        N  0.78165612  0.53962848  0.35477923    -0.78700
C707        C  0.79752705  0.57027127  0.36217290     0.82100
N708        N  0.82808165  0.56983875  0.37995759    -0.78600
C709        C  0.84301222  0.53949320  0.39050392     0.82200
N710        N  0.82724716  0.50862864  0.38263784    -0.80300
C711        C  0.61050312  0.60537301  0.16537920     0.79600
N712        N  0.62126908  0.57458819  0.17976974    -0.78700
C713        C  0.61612906  0.54389825  0.16283808     0.82100
N714        N  0.59987780  0.54413804  0.13133151    -0.78600
C715        C  0.58901184  0.57406746  0.11600491     0.82200
N716        N  0.59468323  0.60522445  0.13287259    -0.80300
C717        C  0.48740366  0.68747716  0.82424112     0.79600
N718        N  0.48631191  0.66767021  0.85358154    -0.78700
C719        C  0.45581521  0.65728184  0.86768619     0.82100
N720        N  0.42533016  0.66686919  0.85213630    -0.78600
C721        C  0.42601267  0.68596581  0.82184726     0.82200
N722        N  0.45703414  0.69660050  0.80837046    -0.80300
C723        C  0.45754365  0.88917789  0.64421282     0.79600
N724        N  0.48794960  0.87166582  0.64921976    -0.78700
C725        C  0.51868573  0.88560222  0.63870480     0.82100
N726        N  0.51910340  0.91819379  0.62363369    -0.78600
C727        C  0.48841289  0.93561380  0.61774711     0.82200
N728        N  0.45814475  0.92086351  0.62823891    -0.80300
C729        C  0.80251543  0.58355611  0.62730008     0.79600
N730        N  0.78911920  0.55239558  0.63701619    -0.78700
C731        C  0.80769132  0.52250736  0.63256740     0.82100
N732        N  0.84029206  0.52374363  0.61862285    -0.78600
C733        C  0.85373448  0.55469231  0.60830445     0.82200
N734        N  0.83494842  0.58440607  0.61293538    -0.80300
C735        C  0.62134541  0.58180009  0.82481274     0.79600
N736        N  0.60349751  0.58195577  0.85596638    -0.78700
C737        C  0.59381281  0.55158571  0.87190728     0.82100
N738        N  0.60289352  0.52049849  0.85651507    -0.78600
C739        C  0.62033478  0.51958864  0.82506438     0.82200
N740        N  0.62934882  0.55041287  0.80936016    -0.80300
C741        C  0.32711026  0.50159266  0.83201739     0.79600
N742        N  0.31668921  0.53278863  0.81842311    -0.78700
C743        C  0.32281021  0.56298460  0.83587031     0.82100
N744        N  0.33970749  0.56172848  0.86699718    -0.78600
C745        C  0.35022154  0.53122172  0.88146418     0.82200
N746        N  0.34339387  0.50057338  0.86421231    -0.80300
C747        C  0.14806136  0.59889292  0.63390723     0.79600
N748        N  0.11658498  0.60064745  0.61688879    -0.78700
C749        C  0.10123470  0.57067584  0.60557687     0.82100
N750        N  0.11683661  0.53968172  0.61216213    -0.78600
C751        C  0.14737564  0.53737058  0.62971041     0.82200
N752        N  0.16298398  0.56719359  0.64062356    -0.80300
N753        N  0.01675325  0.47906406  0.48425543    -0.06700
N754        N  0.04336350  0.46127457  0.47042361    -0.58800
N755        N  0.93785935  0.47868975  0.52733257    -0.06400
N756        N  0.91029606  0.46478553  0.54315601    -0.60900
N757        N  0.93488323  0.47591195  0.49305566    -0.06000
N758        N  0.90556564  0.45997664  0.48485557    -0.58800
N759        N  0.02051590  0.48191396  0.51846749    -0.05700
N760        N  0.04978359  0.46583182  0.52852590    -0.61300
C761        C  0.06397721  0.45297046  0.49823597     0.95500
C762        C  0.89043379  0.45300669  0.51620012     0.95300
N763        N  0.93611036  0.57621030  0.57448766    -0.06900
N764        N  0.90525700  0.58664004  0.58607294    -0.59400
N765        N  0.01995898  0.54761833  0.56992464    -0.05000
N766        N  0.05022526  0.53860086  0.58361023    -0.60600
N767        N  0.01731398  0.58197459  0.56784271    -0.06900
N768        N  0.04596635  0.59690292  0.58023468    -0.59700
N769        N  0.93927391  0.54194817  0.57737486    -0.04600
N770        N  0.91064381  0.52860888  0.59104585    -0.60700
Mn771      Mn  0.97992205  0.51175004  0.54962737     1.18400
C772        C  0.88983441  0.55672056  0.59632076     0.97600
C773        C  0.06618829  0.56936429  0.58992977     0.98200
N774        N  0.92549037  0.52901615  0.43144624    -0.06900
N775        N  0.89721773  0.51405635  0.41832776    -0.63200
N776        N  0.00394342  0.56854507  0.42221767    -0.05700
N777        N  0.03263578  0.58133028  0.40807028    -0.63900
N778        N  0.00650705  0.53424413  0.42506647    -0.06400
N779        N  0.03688287  0.52316738  0.41297517    -0.63500
N780        N  0.92302330  0.56333674  0.42892521    -0.05300
N781        N  0.89320189  0.57231777  0.41412466    -0.64200
Mn782      Mn  0.97079519  0.50357753  0.45739659     1.10700
C783        C  0.87735756  0.54149209  0.40767172     0.98800
C784        C  0.05276173  0.55272109  0.40252317     0.98900
N785        N  0.00758546  0.63530786  0.50643165    -0.06400
N786        N  0.03653151  0.65199323  0.51456322    -0.61800
N787        N  0.92252993  0.62841197  0.48061277    -0.05800
N788        N  0.89318280  0.64388134  0.47010493    -0.58500
N789        N  0.92577516  0.63131600  0.51488465    -0.07100
N790        N  0.89864596  0.64861586  0.52832640    -0.61400
N791        N  0.00479148  0.63221455  0.47216110    -0.06100
N792        N  0.03202995  0.64661535  0.45628398    -0.58600
Mn793      Mn  0.97175143  0.60726627  0.54210324     1.20200
Mn794      Mn  0.96316197  0.59893642  0.44966305     1.10100
Cl795      Cl  0.97142812  0.55541078  0.49972231    -0.86500
C796        C  0.05155219  0.65906424  0.48315421     0.95800
C797        C  0.87836688  0.65646054  0.50012438     0.95600
N798        N  0.49802277  0.48369797  0.04417448    -0.06700
N799        N  0.51211227  0.47155486  0.07359865    -0.58800
N800        N  0.45986266  0.47418867  0.96434393    -0.06400
N801        N  0.44704631  0.46061202  0.93525838    -0.60900
N802        N  0.49406749  0.47731928  0.96185095    -0.06000
N803        N  0.50494367  0.46592310  0.93089143    -0.58800
N804        N  0.46377019  0.48089718  0.04551750    -0.05700
N805        N  0.45394760  0.46698534  0.07548445    -0.61300
C806        C  0.48413003  0.46129751  0.09276263     0.95500
C807        C  0.47534158  0.45555251  0.91477592     0.95300
N808        N  0.39202356  0.55704460  0.96010246    -0.06900
N809        N  0.37490760  0.56502985  0.93113037    -0.59400
N810        N  0.39865725  0.53142348  0.04559237    -0.05000
N811        N  0.38321908  0.52072324  0.07490085    -0.60600
N812        N  0.39544422  0.56556561  0.04251565    -0.06900
N813        N  0.37791590  0.57872678  0.06968148    -0.59700
N814        N  0.39543543  0.52293260  0.96283312    -0.04600
N815        N  0.38074238  0.50697408  0.93560480    -0.60700
Mn816      Mn  0.42876566  0.50106358  0.00490141     1.18400
C817        C  0.36784254  0.53371328  0.91607460     0.97600
C818        C  0.37026930  0.55049637  0.08983885     0.98200
N819        N  0.54853924  0.53732349  0.95320706    -0.06900
N820        N  0.56653565  0.52433571  0.92623618    -0.63200
N821        N  0.54724659  0.58032280  0.03251900    -0.05700
N822        N  0.56066653  0.59679833  0.06009625    -0.63900
N823        N  0.55054527  0.54623285  0.03601515    -0.06400
N824        N  0.56638962  0.53887385  0.06592930    -0.63500
N825        N  0.54491282  0.57139029  0.94987926    -0.05300
N826        N  0.56055869  0.58224911  0.92077249    -0.64200
Mn827      Mn  0.52401621  0.50986519  0.99898169     1.10700
C828        C  0.57403668  0.55265435  0.90607724     0.98800
C829        C  0.57272100  0.57053830  0.08072749     0.98900
N830        N  0.44951721  0.62581006  0.03290137    -0.06400
N831        N  0.43900531  0.63790195  0.06369145    -0.61800
N832        N  0.47884531  0.62099382  0.94897442    -0.05800
N833        N  0.48799922  0.63458743  0.91866863    -0.58500
N834        N  0.44460508  0.61844589  0.95106958    -0.07100
N835        N  0.42983362  0.63042285  0.92195069    -0.61400
N836        N  0.48358680  0.62930556  0.02973356    -0.06100
N837        N  0.49673766  0.64392926  0.05810637    -0.58600
Mn838      Mn  0.41929759  0.59290537  0.99661766     1.20200
Mn839      Mn  0.51433619  0.60171781  0.98980138     1.10100
Cl840      Cl  0.47163885  0.55134769  0.99758495    -0.86500
C841        C  0.46875116  0.64912414  0.07891671     0.95800
C842        C  0.45737697  0.64027553  0.90207902     0.95600
N843        N  0.49073786  0.10142174  0.57302523    -0.06700
N844        N  0.50166971  0.13028418  0.58894113    -0.58800
N845        N  0.46406008  0.01646997  0.57937808    -0.06400
N846        N  0.45543885  0.98702607  0.59510172    -0.60900
N847        N  0.49817041  0.01863596  0.57642132    -0.06000
N848        N  0.51343899  0.99044520  0.59012517    -0.58800
N849        N  0.45662031  0.09881148  0.57586150    -0.05700
N850        N  0.44373600  0.12593136  0.59369853    -0.61300
C851        C  0.47211422  0.14552711  0.60184739     0.95500
C852        C  0.48633750  0.97101616  0.60186890     0.95300
N853        N  0.40107653  0.00487311  0.49171851    -0.06900
N854        N  0.38707457  0.97467258  0.48305055    -0.59400
N855        N  0.39714847  0.08915044  0.51992874    -0.05000
N856        N  0.38583311  0.12030726  0.52987011    -0.60600
N857        N  0.39406237  0.08560622  0.48561156    -0.06900
N858        N  0.38057084  0.11419879  0.47170837    -0.59700
N859        N  0.40327168  0.00774453  0.52615866    -0.04600
N860        N  0.39082262  0.97931125  0.54149009    -0.60700
Mn861      Mn  0.42909375  0.05315427  0.55140790     1.18400
C862        C  0.38082742  0.95898380  0.51420027     0.97600
C863        C  0.37563731  0.13541935  0.49951732     0.98200
N864        N  0.54771062  0.01956180  0.51267613    -0.06900
N865        N  0.55958548  0.98972419  0.52560390    -0.63200
N866        N  0.53922344  0.09921424  0.47326945    -0.05700
N867        N  0.55208002  0.12778189  0.45847338    -0.63900
N868        N  0.54189327  0.10122236  0.50774735    -0.06400
N869        N  0.55648815  0.13103001  0.51693850    -0.63500
N870        N  0.54520646  0.01749735  0.47819269    -0.05300
N871        N  0.55542538  0.98634806  0.46718758    -0.64200
Mn872      Mn  0.52099497  0.06059254  0.54326393     1.10700
C873        C  0.56415874  0.96942651  0.49695978     0.98800
C874        C  0.56274786  0.14737217  0.48610138     0.98900
N875        N  0.44356987  0.08689908  0.42204410    -0.06400
N876        N  0.42753155  0.11373879  0.40662756    -0.61800
N877        N  0.48631389  0.00802185  0.42301536    -0.05800
N878        N  0.49978013  0.98109939  0.40535586    -0.58500
N879        N  0.45231909  0.00451845  0.42614631    -0.07100
N880        N  0.44201388  0.97529839  0.41043933    -0.61400
N881        N  0.47762640  0.09006686  0.41941370    -0.06100
N882        N  0.48546778  0.11880627  0.40203942    -0.58600
Mn883      Mn  0.42148243  0.04495550  0.45565949     1.20200
Mn884      Mn  0.51327282  0.05395364  0.44747084     1.10100
Cl885      Cl  0.47119570  0.05329420  0.49944673    -0.86500
C886        C  0.45410483  0.13337610  0.39407359     0.95800
C887        C  0.47189716  0.96074263  0.39749146     0.95600
O888        O  0.13975581  0.38520961  0.27271386    -0.88800
C889        C  0.18732567  0.19710018  0.29531822     1.11300
O890        O  0.18928281  0.33263127  0.23935610    -1.36600
O891        O  0.22639762  0.27692911  0.34911275    -0.90200
O892        O  0.18422031  0.41065151  0.24591796    -0.90900
O893        O  0.26296943  0.37781814  0.25260742    -0.79700
O894        O  0.17712391  0.32772346  0.31276618    -1.01800
C895        C  0.30149949  0.28484604  0.28832252     1.21300
O896        O  0.24859065  0.30444178  0.21294768    -1.36700
Mn897      Mn  0.19731211  0.28059402  0.21750864     1.82100
O898        O  0.28888624  0.31549876  0.29061842    -0.78800
O899        O  0.25267608  0.23052289  0.32500058    -0.88200
C900        C  0.24137048  0.21693653  0.19855486     1.12400
C901        C  0.24789632  0.25153984  0.35029981     1.07100
O902        O  0.17496501  0.29166640  0.16609428    -0.79700
O903        O  0.21848267  0.27559242  0.27010196    -1.33400
O904        O  0.19917597  0.34104503  0.16690673    -0.99000
C905        C  0.32828129  0.33844705  0.19470697     1.05900
Mn906      Mn  0.25184637  0.23226699  0.27076880     1.48600
O907        O  0.30444878  0.34439699  0.17208317    -0.88200
Mn908      Mn  0.18901395  0.37471402  0.20420926     1.49600
O909        O  0.11203554  0.32988967  0.22918476    -0.92000
C910        C  0.19602946  0.34892591  0.32701381     1.19000
C911        C  0.11073765  0.35100166  0.20354785     1.11100
Mn912      Mn  0.24004066  0.32741981  0.26412851     1.81000
O913        O  0.25973097  0.23178928  0.21982102    -0.97200
Mn914      Mn  0.14538098  0.33226392  0.27187572     1.49300
C915        C  0.16060180  0.41023810  0.26943589     1.07600
Mn916      Mn  0.29222508  0.27125674  0.21552793     1.49900
C917        C  0.27556731  0.27018321  0.13804928     1.10500
O918        O  0.24026471  0.37741598  0.20198801    -1.03000
O919        O  0.20996581  0.19709198  0.27078819    -0.92600
C920        C  0.25957206  0.39199305  0.22273641     1.21800
O921        O  0.28899018  0.26595489  0.26617958    -1.03400
O922        O  0.18378540  0.22256235  0.31638642    -0.90800
O923        O  0.29836202  0.27001815  0.16186421    -0.90400
O924        O  0.13494651  0.37265973  0.19703977    -0.90400
Mn925      Mn  0.18531966  0.27648350  0.31360887     1.47900
O926        O  0.21135049  0.23029001  0.19386478    -0.78900
C927        C  0.17974114  0.32110290  0.15163495     1.14900
O928        O  0.22618617  0.35211392  0.31380124    -0.77600
O929        O  0.14792323  0.25448461  0.22922166    -0.77200
Mn930      Mn  0.25004110  0.33830865  0.16982596     1.51100
O931        O  0.32621102  0.31379669  0.21707578    -0.89600
O932        O  0.14757329  0.28081356  0.27833254    -0.97100
O933        O  0.25319919  0.29482272  0.13582460    -0.92100
C934        C  0.13488589  0.25793783  0.25968259     1.12600
C935        C  0.66040339  0.67321597  0.81935729    -0.21900
C936        C  0.66250454  0.67986790  0.78299621    -0.09900
C937        C  0.65029041  0.65372971  0.75996098     0.28900
C938        C  0.63706044  0.62179704  0.77332153    -0.21900
C939        C  0.63479011  0.61562628  0.80987448    -0.09900
C940        C  0.64656501  0.64208755  0.83260365     0.28900
F941        F  0.64618345  0.63738195  0.86793813    -0.20500
H942        H  0.66982680  0.69236932  0.83804642     0.17300
H943        H  0.62840644  0.60190728  0.75504939     0.17300
F944        F  0.65220687  0.65843566  0.72470608    -0.20500
C945        C  0.80170862  0.67289109  0.66493225    -0.21900
C946        C  0.77685318  0.66945062  0.69186629    -0.09900
C947        C  0.75456784  0.64046468  0.69161994     0.28900
C948        C  0.76012895  0.61366370  0.66718968    -0.21900
C949        C  0.78762322  0.61578720  0.64260356    -0.09900
C950        C  0.80629828  0.64708532  0.63988199     0.28900
F951        F  0.83141958  0.65165398  0.61514138    -0.20500
H952        H  0.81894517  0.69520223  0.66378201     0.17300
H953        H  0.74461155  0.59014346  0.66935769     0.17300
F954        F  0.72895917  0.63697504  0.71600082    -0.20500
C955        C  0.58497962  0.81600288  0.66577475    -0.21900
C956        C  0.60626124  0.83564331  0.68817762    -0.09900
C957        C  0.59945429  0.87217330  0.69152347     0.28900
C958        C  0.57268361  0.88820038  0.67290250    -0.21900
C959        C  0.55098065  0.86865802  0.65134035    -0.09900
C960        C  0.55700667  0.83228330  0.64799060     0.28900
F961        F  0.53544718  0.81248206  0.62807657    -0.20500
H962        H  0.58930597  0.78810604  0.66286902     0.17300
H963        H  0.56785927  0.91592107  0.67674870     0.17300
F964        F  0.61855876  0.89309361  0.71295181    -0.20500
C965        C  0.55377493  0.74864303  0.78363404    -0.21900
C966        C  0.58143807  0.74493202  0.80765339    -0.09900
C967        C  0.57888877  0.71982019  0.83449480     0.28900
C968        C  0.54928409  0.69955909  0.83755137    -0.21900
C969        C  0.52069216  0.70445119  0.81496914    -0.09900
C970        C  0.52346987  0.72872682  0.78730370     0.28900
F971        F  0.49676800  0.73401515  0.76446132    -0.20500
H972        H  0.55525494  0.76746190  0.76244364     0.17300
H973        H  0.54831584  0.68114792  0.85912394     0.17300
F974        F  0.60424625  0.71561081  0.85905921    -0.20500
C975        C  0.73286171  0.72349946  0.60933439    -0.21900
C976        C  0.75437680  0.74229281  0.63258891    -0.09900
C977        C  0.78992688  0.74640274  0.62294209     0.28900
C978        C  0.80335618  0.73186890  0.59186609    -0.21900
C979        C  0.78193169  0.71382751  0.56835199    -0.09900
C980        C  0.74631700  0.70988195  0.57732398     0.28900
F981        F  0.72459780  0.69255134  0.55532438    -0.20500
H982        H  0.70555085  0.71994134  0.61554836     0.17300
H983        H  0.83065983  0.73565496  0.58567060     0.17300
F984        F  0.81239822  0.76414806  0.64387334    -0.20500
C985        C  0.63980689  0.88854731  0.61778514    -0.21900
C986        C  0.66218134  0.85919977  0.61691100    -0.09900
C987        C  0.65930529  0.83528035  0.58909250     0.28900
C988        C  0.63574794  0.84208151  0.56182453    -0.21900
C989        C  0.61468756  0.87258972  0.56216466    -0.09900
C990        C  0.61579949  0.89474580  0.59149546     0.28900
F991        F  0.59540807  0.92385329  0.59409954    -0.20500
H992        H  0.64094110  0.90754958  0.63891407     0.17300
H993        H  0.63526157  0.82429823  0.53960655     0.17300
F994        F  0.67969630  0.80610475  0.58766480    -0.20500
C995        C  0.89209495  0.72034645  0.85562544    -0.21900
C996        C  0.92084980  0.74238708  0.85108800    -0.09900
C997        C  0.91794771  0.77056995  0.82733526     0.28900
C998        C  0.88777818  0.77457483  0.80679008    -0.21900
C999        C  0.86043463  0.75034262  0.80927376    -0.09900
C1000       C  0.86285613  0.72348456  0.83452917     0.28900
F1001       F  0.83803810  0.69855337  0.83775027    -0.20500
H1002       H  0.89295219  0.69865990  0.87391580     0.17300
H1003       H  0.88633183  0.79595359  0.78816616     0.17300
F1004       F  0.94456142  0.79337767  0.82287087    -0.20500
C1005       C  0.83250756  0.87243337  0.68125251    -0.21900
C1006       C  0.83108310  0.86972584  0.71824457    -0.09900
C1007       C  0.85752627  0.88568751  0.73797438     0.28900
C1008       C  0.88579179  0.90172161  0.72065441    -0.21900
C1009       C  0.88735582  0.90320096  0.68355028    -0.09900
C1010       C  0.85960275  0.88957494  0.66420060     0.28900
F1011       F  0.86019765  0.88971971  0.62854517    -0.20500
H1012       H  0.81310289  0.86001721  0.66497688     0.17300
H1013       H  0.90714541  0.91179346  0.73614670     0.17300
F1014       F  0.85745612  0.88359596  0.77354792    -0.20500
C1015       C  0.69610850  0.97724077  0.84515133    -0.21900
C1016       C  0.66081998  0.98707519  0.84017374    -0.09900
C1017       C  0.63932980  0.96424407  0.82120746     0.28900
C1018       C  0.65272230  0.93292025  0.80729868    -0.21900
C1019       C  0.68768781  0.92219400  0.81292352    -0.09900
C1020       C  0.70933469  0.94493776  0.83220891     0.28900
F1021       F  0.74324756  0.93634934  0.83811449    -0.20500
H1022       H  0.71338630  0.99446717  0.85944182     0.17300
H1023       H  0.63507387  0.91648861  0.79251005     0.17300
F1024       F  0.60532387  0.97259132  0.81528544    -0.20500
C1025       C  0.78564557  0.95997243  0.71893058    -0.21900
C1026       C  0.77041705  0.94063204  0.69181029    -0.09900
C1027       C  0.78078340  0.94630821  0.65681817     0.28900
C1028       C  0.80661035  0.97012554  0.64918536    -0.21900
C1029       C  0.82175748  0.98992017  0.67597871    -0.09900
C1030       C  0.81118387  0.98471236  0.71107841     0.28900
F1031       F  0.82548062  0.00347555  0.73764675    -0.20500
H1032       H  0.77860442  0.95518543  0.74600943     0.17300
H1033       H  0.81340931  0.97420144  0.62192403     0.17300
F1034       F  0.76601306  0.92854159  0.62975554    -0.20500
C1035       C  0.79717121  0.72037563  0.91104717    -0.21900
C1036       C  0.80933739  0.74309273  0.93709824    -0.09900
C1037       C  0.80666782  0.77950130  0.93107805     0.28900
C1038       C  0.79294549  0.79252871  0.89915301    -0.21900
C1039       C  0.78028835  0.76955972  0.87330186    -0.09900
C1040       C  0.78217176  0.73317704  0.88015555     0.28900
F1041       F  0.76933233  0.70950617  0.85696563    -0.20500
H1042       H  0.79818754  0.69225384  0.91509996     0.17300
H1043       H  0.79123633  0.82060052  0.89512122     0.17300
F1044       F  0.81749045  0.80244032  0.95592932    -0.20500
C1045       C  0.68860110  0.88908571  0.93901451    -0.21900
C1046       C  0.66197986  0.91461831  0.93547188    -0.09900
C1047       C  0.64343639  0.91668608  0.90389978     0.28900
C1048       C  0.64625824  0.88980670  0.87983910    -0.21900
C1049       C  0.66984618  0.86191181  0.88496312    -0.09900
C1050       C  0.69274218  0.86288984  0.91364451     0.28900
F1051       F  0.71713135  0.83741613  0.91854411    -0.20500
H1052       H  0.70406705  0.88742903  0.96273379     0.17300
H1053       H  0.62868813  0.89037818  0.85766288     0.17300
F1054       F  0.61953392  0.94242848  0.89792405    -0.20500
C1055       C  0.79532303  0.66469260  0.33591887    -0.21900
C1056       C  0.77543366  0.66374219  0.30499738    -0.09900
C1057       C  0.75870344  0.63243821  0.29565521     0.28900
C1058       C  0.76394759  0.60231607  0.31585428    -0.21900
C1059       C  0.78555460  0.60310920  0.34572875    -0.09900
C1060       C  0.79981629  0.63512641  0.35647522     0.28900
F1061       F  0.81946451  0.63771107  0.38603535    -0.20500
H1062       H  0.80867155  0.68831344  0.34386389     0.17300
H1063       H  0.75256505  0.57795944  0.30697728     0.17300
F1064       F  0.73903947  0.63031268  0.26609963    -0.20500
C1065       C  0.65147310  0.69363032  0.18039804    -0.21900
C1066       C  0.65645768  0.69452686  0.21718881    -0.09900
C1067       C  0.64232670  0.66726798  0.23724734     0.28900
C1068       C  0.62532420  0.63921043  0.22041466    -0.21900
C1069       C  0.62117754  0.63829317  0.18344686    -0.09900
C1070       C  0.63336195  0.66665644  0.16387506     0.28900
F1071       F  0.63059457  0.66697105  0.12833729    -0.20500
H1072       H  0.66283552  0.71344370  0.16373080     0.17300
H1073       H  0.61652892  0.61741190  0.23621668     0.17300
F1074       F  0.64726054  0.66628837  0.27251774    -0.20500
C1075       C  0.53688911  0.72113796  0.20534379    -0.21900
C1076       C  0.53400430  0.70920354  0.17038956    -0.09900
C1077       C  0.55683506  0.72217621  0.14478315     0.28900
C1078       C  0.58160302  0.74661805  0.15397743    -0.21900
C1079       C  0.58508994  0.75797079  0.18892444    -0.09900
C1080       C  0.56229750  0.74543396  0.21462573     0.28900
F1081       F  0.56526532  0.75569388  0.24860100    -0.20500
H1082       H  0.51919548  0.71186688  0.22549335     0.17300
H1083       H  0.59887178  0.75613238  0.13354023     0.17300
F1084       F  0.55474698  0.71233396  0.11057407    -0.20500
C1085       C  0.60326312  0.87339318  0.32291369    -0.21900
C1086       C  0.60779934  0.83740591  0.31593148    -0.09900
C1087       C  0.57955253  0.81512790  0.32325805     0.28900
C1088       C  0.54724670  0.82900475  0.33527396    -0.21900
C1089       C  0.54256800  0.86526753  0.34137580    -0.09900
C1090       C  0.57158896  0.88708443  0.33580127     0.28900
F1091       F  0.56900522  0.92215708  0.34091769    -0.20500
H1092       H  0.62426718  0.89140557  0.31754238     0.17300
H1093       H  0.52570074  0.81132660  0.33950961     0.17300
F1094       F  0.58249984  0.78025547  0.31718224    -0.20500
C1095       C  0.66405185  0.83703271  0.40911886    -0.21900
C1096       C  0.68051641  0.86547430  0.39313548    -0.09900
C1097       C  0.66971562  0.89975527  0.40071787     0.28900
C1098       C  0.64187041  0.90558407  0.42286265    -0.21900
C1099       C  0.62501780  0.87745848  0.43900952    -0.09900
C1100       C  0.63651929  0.84301357  0.43250039     0.28900
F1101       F  0.62100225  0.81545296  0.44844236    -0.20500
H1102       H  0.67147979  0.81042557  0.40235272     0.17300
H1103       H  0.63452937  0.93247298  0.42844391     0.17300
F1104       F  0.68532800  0.92766638  0.38536044    -0.20500
C1105       C  0.73423596  0.73521447  0.39881552    -0.21900
C1106       C  0.75787604  0.74732508  0.37326024    -0.09900
C1107       C  0.79395914  0.74497871  0.38097997     0.28900
C1108       C  0.80586677  0.73005600  0.41232238    -0.21900
C1109       C  0.78253858  0.71821717  0.43801075    -0.09900
C1110       C  0.74636856  0.72137519  0.43113500     0.28900
F1111       F  0.72276963  0.71070207  0.45538243    -0.20500
H1112       H  0.70641742  0.73718424  0.39413840     0.17300
H1113       H  0.83375620  0.72849689  0.41681167     0.17300
F1114       F  0.81827829  0.75633634  0.35773273    -0.20500
C1115       C  0.63798185  0.88687401  0.11690880    -0.21900
C1116       C  0.66738756  0.86463249  0.11631600    -0.09900
C1117       C  0.69141611  0.86735271  0.08864146     0.28900
C1118       C  0.68468720  0.89060190  0.06113099    -0.21900
C1119       C  0.65405948  0.91137387  0.06105349    -0.09900
C1120       C  0.63166579  0.91037310  0.09018049     0.28900
F1121       F  0.60243824  0.93060931  0.09230318    -0.20500
H1122       H  0.61905170  0.88594433  0.13804738     0.17300
H1123       H  0.70263909  0.89104219  0.03912883     0.17300
F1124       F  0.72070075  0.84713955  0.08762926    -0.20500
C1125       C  0.78045116  0.73599149  0.12240790    -0.21900
C1126       C  0.78333077  0.77198659  0.13039763    -0.09900
C1127       C  0.80021088  0.79342702  0.10564077     0.28900
C1128       C  0.81363270  0.77894881  0.07406062    -0.21900
C1129       C  0.81145907  0.74272005  0.06692939    -0.09900
C1130       C  0.79473334  0.72148639  0.09171250     0.28900
F1131       F  0.79103939  0.68668486  0.08574848    -0.20500
H1132       H  0.76737598  0.71849826  0.14045377     0.17300
H1133       H  0.82586529  0.79609805  0.05510778     0.17300
F1134       F  0.80275634  0.82835696  0.11130608    -0.20500
C1135       C  0.63915546  0.95515133  0.17278674    -0.21900
C1136       C  0.65838589  0.97528397  0.14942449    -0.09900
C1137       C  0.69425195  0.96780195  0.14472676     0.28900
C1138       C  0.71038093  0.94009326  0.16312203    -0.21900
C1139       C  0.69115298  0.92042370  0.18733525    -0.09900
C1140       C  0.65508022  0.92853357  0.19185274     0.28900
F1141       F  0.63454912  0.91085647  0.21482985    -0.20500
H1142       H  0.61183033  0.96107476  0.17752881     0.17300
H1143       H  0.73787175  0.93456005  0.15902227     0.17300
F1144       F  0.71368340  0.98754024  0.12265982    -0.20500
C1145       C  0.81486321  0.94565631  0.31915849    -0.21900
C1146       C  0.78236297  0.94645197  0.30216623    -0.09900
C1147       C  0.77044076  0.97811814  0.28734014     0.28900
C1148       C  0.78967510  0.00870613  0.29199558    -0.21900
C1149       C  0.82093628  0.00808474  0.31130842    -0.09900
C1150       C  0.83409759  0.97592197  0.32350707     0.28900
F1151       F  0.86483337  0.97383968  0.34116510    -0.20500
H1152       H  0.82508830  0.92167117  0.33038136     0.17300
H1153       H  0.77898563  0.03319509  0.28230673     0.17300
F1154       F  0.73948220  0.98006495  0.27007476    -0.20500
C1155       C  0.90135754  0.89851200  0.27040127    -0.21900
C1156       C  0.91132989  0.89427677  0.30592078    -0.09900
C1157       C  0.88935022  0.87454499  0.32767455     0.28900
C1158       C  0.85901002  0.85902749  0.31443521    -0.21900
C1159       C  0.84845747  0.86316060  0.27911984    -0.09900
C1160       C  0.86999566  0.88367828  0.25722635     0.28900
F1161       F  0.86106754  0.88912675  0.22318900    -0.20500
H1162       H  0.91767993  0.91368383  0.25290938     0.17300
H1163       H  0.84337041  0.84375339  0.33245804     0.17300
F1164       F  0.89780547  0.86920544  0.36187630    -0.20500
C1165       C  0.90949301  0.76739246  0.16148772    -0.21900
C1166       C  0.90815738  0.73896942  0.13789974    -0.09900
C1167       C  0.87779521  0.71879061  0.13625079     0.28900
C1168       C  0.85265544  0.72260505  0.16195329    -0.21900
C1169       C  0.85565920  0.74832541  0.18815133    -0.09900
C1170       C  0.88326327  0.77219315  0.18650897     0.28900
F1171       F  0.88606145  0.79868713  0.21009824    -0.20500
H1172       H  0.93221161  0.78410631  0.16265754     0.17300
H1173       H  0.83128959  0.70418893  0.16186968     0.17300
F1174       F  0.87388336  0.69280493  0.11222562    -0.20500
C1175       C  0.15584852  0.68027344  0.68876536    -0.21900
C1176       C  0.19204967  0.68674615  0.68835714    -0.09900
C1177       C  0.21393176  0.66414228  0.66905475     0.28900
C1178       C  0.19953264  0.63575412  0.65063081    -0.21900
C1179       C  0.16317086  0.63021829  0.65051472    -0.09900
C1180       C  0.14154405  0.65274124  0.66986587     0.28900
F1181       F  0.10657670  0.64740059  0.67171348    -0.20500
H1182       H  0.13815422  0.69693899  0.70348064     0.17300
H1183       H  0.21670295  0.61803854  0.63654678     0.17300
F1184       F  0.24901865  0.66879726  0.66880046    -0.20500
C1185       C  0.26719457  0.63099979  0.78849381    -0.21900
C1186       C  0.27186445  0.66009064  0.81056692    -0.09900
C1187       C  0.29543654  0.65738679  0.83885573     0.28900
C1188       C  0.31329131  0.62639497  0.84507883    -0.21900
C1189       C  0.30758258  0.59670369  0.82421765    -0.09900
C1190       C  0.28481916  0.59944067  0.79522189     0.28900
F1191       F  0.27874942  0.57160658  0.77398029    -0.20500
H1192       H  0.24948920  0.63249517  0.76633977     0.17300
H1193       H  0.33067002  0.62548262  0.86751953     0.17300
F1194       F  0.30025428  0.68408972  0.86186826    -0.20500
C1195       C  0.34287226  0.73777178  0.81700252    -0.21900
C1196       C  0.33717310  0.74017457  0.78054790    -0.09900
C1197       C  0.35994846  0.72244578  0.75757622     0.28900
C1198       C  0.38846957  0.70357490  0.77111253    -0.21900
C1199       C  0.39379069  0.70133276  0.80760995    -0.09900
C1200       C  0.37051678  0.71828191  0.83043157     0.28900
F1201       F  0.37569458  0.71788648  0.86572202    -0.20500
H1202       H  0.32589901  0.75117770  0.83541186     0.17300
H1203       H  0.40666627  0.69116182  0.75320302     0.17300
F1204       F  0.35552027  0.72446753  0.72227997    -0.20500
C1205       C  0.39424927  0.89679494  0.65485496    -0.21900
C1206       C  0.42471973  0.87720820  0.66076540    -0.09900
C1207       C  0.42384189  0.84976281  0.68558881     0.28900
C1208       C  0.39325173  0.84328508  0.70476093    -0.21900
C1209       C  0.36334912  0.86424227  0.69987021    -0.09900
C1210       C  0.36438542  0.89115622  0.67453735     0.28900
F1211       F  0.33715140  0.91354351  0.66966642    -0.20500
H1212       H  0.39381066  0.91802733  0.63599596     0.17300
H1213       H  0.39319584  0.82229856  0.72389715     0.17300
F1214       F  0.45266556  0.83004288  0.69240649    -0.20500
C1215       C  0.30918086  0.81388225  0.61788463    -0.21900
C1216       C  0.28607012  0.83572490  0.63658980    -0.09900
C1217       C  0.28472394  0.87175254  0.62814858     0.28900
C1218       C  0.30531726  0.88519535  0.60140216    -0.21900
C1219       C  0.32700851  0.86323832  0.58170583    -0.09900
C1220       C  0.32916188  0.82743989  0.59017941     0.28900
F1221       F  0.35007005  0.80561628  0.57128155    -0.20500
H1222       H  0.31109579  0.78629023  0.62408162     0.17300
H1223       H  0.30284104  0.91268532  0.59482496     0.17300
F1224       F  0.26337560  0.89439532  0.64558443    -0.20500
C1225       C  0.14278054  0.72397790  0.60619222    -0.21900
C1226       C  0.16330695  0.75433485  0.60565074    -0.09900
C1227       C  0.17632962  0.76616125  0.57319437     0.28900
C1228       C  0.16766383  0.74850072  0.54211257    -0.21900
C1229       C  0.14593148  0.71897380  0.54296846    -0.09900
C1230       C  0.13444637  0.70632500  0.57551967     0.28900
F1231       F  0.11444297  0.67722622  0.57781284    -0.20500
H1232       H  0.13191821  0.71420569  0.63048839     0.17300
H1233       H  0.17673944  0.75882129  0.51724610     0.17300
F1234       F  0.19606740  0.79543198  0.57121129    -0.20500
C1235       C  0.08516535  0.79509470  0.83370600    -0.21900
C1236       C  0.10474848  0.77276953  0.81177227    -0.09900
C1237       C  0.09530804  0.73712243  0.80949448     0.28900
C1238       C  0.06761135  0.72425586  0.82904484    -0.21900
C1239       C  0.04786772  0.74646446  0.85047405    -0.09900
C1240       C  0.05643293  0.78216335  0.85249033     0.28900
F1241       F  0.03710223  0.80436069  0.87260313    -0.20500
H1242       H  0.09177949  0.82250753  0.83591697     0.17300
H1243       H  0.06083697  0.69688591  0.82650046     0.17300
F1244       F  0.11306243  0.71418200  0.78871601    -0.20500
C1245       C  0.04609330  0.84095670  0.70453681    -0.21900
C1246       C  0.07747815  0.85196494  0.68898987    -0.09900
C1247       C  0.07652945  0.88077724  0.66585710     0.28900
C1248       C  0.04536954  0.89803300  0.65881036    -0.21900
C1249       C  0.01388135  0.88653344  0.67330368    -0.09900
C1250       C  0.01442284  0.85784586  0.69656186     0.28900
F1251       F  0.98438645  0.84501245  0.71021034    -0.20500
H1252       H  0.04587326  0.81865064  0.72209456     0.17300
H1253       H  0.04587852  0.91994603  0.64075214     0.17300
F1254       F  0.10534784  0.89159222  0.64839125    -0.20500
C1255       C  0.26952355  0.00908544  0.81267401    -0.21900
C1256       C  0.29382520  0.00854140  0.84042473    -0.09900
C1257       C  0.30855176  0.97644012  0.85069043     0.28900
C1258       C  0.30161760  0.94629263  0.83168934    -0.21900
C1259       C  0.27857688  0.94669295  0.80294624    -0.09900
C1260       C  0.26178237  0.97838117  0.79410783     0.28900
F1261       F  0.23914204  0.98015692  0.76675411    -0.20500
H1262       H  0.25773369  0.03346034  0.80426590     0.17300
H1263       H  0.31545765  0.92278953  0.83897355     0.17300
F1264       F  0.33076587  0.97419551  0.87839877    -0.20500
C1265       C  0.14062333  0.95606032  0.67164703    -0.21900
C1266       C  0.11569208  0.97278476  0.69254627    -0.09900
C1267       C  0.11161613  0.96256427  0.72780358     0.28900
C1268       C  0.13195944  0.93509865  0.74154807    -0.21900
C1269       C  0.15737212  0.91854743  0.72055229    -0.09900
C1270       C  0.16154936  0.92963374  0.68536686     0.28900
F1271       F  0.18576573  0.91490590  0.66372972    -0.20500
H1272       H  0.14492704  0.96448007  0.64482392     0.17300
H1273       H  0.12817284  0.92711121  0.76855453     0.17300
F1274       F  0.08833658  0.97938604  0.74889430    -0.20500
C1275       C  0.24629268  0.90592322  0.91637911    -0.21900
C1276       C  0.28272325  0.90548586  0.92166733    -0.09900
C1277       C  0.30384538  0.88537878  0.89936667     0.28900
C1278       C  0.28891341  0.86573404  0.87266338    -0.21900
C1279       C  0.25257805  0.86627212  0.86668087    -0.09900
C1280       C  0.23126754  0.88688425  0.88866940     0.28900
F1281       F  0.19612826  0.88773254  0.88420141    -0.20500
H1282       H  0.22953081  0.92063959  0.93398407     0.17300
H1283       H  0.30623358  0.85026165  0.85628462     0.17300
F1284       F  0.33893172  0.88344821  0.90423261    -0.20500
C1285       C  0.15912656  0.75526473  0.95521773    -0.21900
C1286       C  0.13035174  0.73255834  0.95411532    -0.09900
C1287       C  0.11986456  0.71865865  0.92173737     0.28900
C1288       C  0.13927757  0.72518852  0.89172472    -0.21900
C1289       C  0.16922955  0.74628331  0.89286017    -0.09900
C1290       C  0.17850115  0.76212398  0.92484363     0.28900
F1291       F  0.20698663  0.78290011  0.92723264    -0.20500
H1292       H  0.16778546  0.76629914  0.97987677     0.17300
H1293       H  0.13126263  0.71255487  0.86771217     0.17300
F1294       F  0.09157376  0.69760486  0.91913687    -0.20500
C1295       C  0.75298117  0.45642988  0.68008201    -0.21900
C1296       C  0.77844103  0.44164008  0.70194128    -0.09900
C1297       C  0.81321221  0.45264188  0.69986975     0.28900
C1298       C  0.82269648  0.47749090  0.67540551    -0.21900
C1299       C  0.79754474  0.49223700  0.65316511    -0.09900
C1300       C  0.76246764  0.48196580  0.65577913     0.28900
F1301       F  0.73774184  0.49614375  0.63450301    -0.20500
H1302       H  0.72632612  0.44719616  0.68084509     0.17300
H1303       H  0.84958340  0.48606479  0.67468707     0.17300
F1304       F  0.83811910  0.43877703  0.72124047    -0.20500
C1305       C  0.66439069  0.43008902  0.81834698    -0.21900
C1306       C  0.65911165  0.41995406  0.78304414    -0.09900
C1307       C  0.64046049  0.44338511  0.76123997     0.28900
C1308       C  0.62798217  0.47586158  0.77462261    -0.21900
C1309       C  0.63287756  0.48522942  0.81020553    -0.09900
C1310       C  0.65106888  0.46162574  0.83183430     0.28900
F1311       F  0.65703520  0.46953628  0.86606656    -0.20500
H1312       H  0.67871914  0.41316049  0.83612526     0.17300
H1313       H  0.61415723  0.49358184  0.75724162     0.17300
F1314       F  0.63482169  0.43533211  0.72701059    -0.20500
C1315       C  0.59099121  0.38522074  0.82635846    -0.21900
C1316       C  0.58652065  0.35636113  0.80386985    -0.09900
C1317       C  0.55664267  0.35465182  0.78276938     0.28900
C1318       C  0.53004243  0.37941507  0.78731744    -0.21900
C1319       C  0.53329660  0.40613472  0.81271831    -0.09900
C1320       C  0.56525376  0.41046237  0.82994034     0.28900
F1321       F  0.57058854  0.43719975  0.85281996    -0.20500
H1322       H  0.61398628  0.38775272  0.84252293     0.17300
H1323       H  0.50592564  0.37587641  0.77302970     0.17300
F1324       F  0.55203681  0.32797956  0.75969878    -0.20500
C1325       C  0.59173969  0.23269904  0.69088363    -0.21900
C1326       C  0.59896288  0.26887057  0.69094069    -0.09900
C1327       C  0.57332655  0.29151227  0.67677791     0.28900
C1328       C  0.54153400  0.27800222  0.66342236    -0.21900
C1329       C  0.53505931  0.24161919  0.66278538    -0.09900
C1330       C  0.56095932  0.21924077  0.67648720     0.28900
F1331       F  0.55609728  0.18410340  0.67716241    -0.20500
H1332       H  0.61053747  0.21422127  0.70164477     0.17300
H1333       H  0.52200708  0.29602680  0.65328702     0.17300
F1334       F  0.57842645  0.32659052  0.67677644    -0.20500
C1335       C  0.63457972  0.23191037  0.60896118    -0.21900
C1336       C  0.66600002  0.25064642  0.60702437    -0.09900
C1337       C  0.67541974  0.26614429  0.57495851     0.28900
C1338       C  0.65481726  0.26084032  0.54505028    -0.21900
C1339       C  0.62443754  0.24029908  0.54686632    -0.09900
C1340       C  0.61366923  0.22740737  0.57954517     0.28900
F1341       F  0.58358881  0.20911852  0.58301138    -0.20500
H1342       H  0.62669145  0.21973901  0.63269370     0.17300
H1343       H  0.66368915  0.27113776  0.52029322     0.17300
F1344       F  0.70544414  0.28455306  0.57184450    -0.20500
C1345       C  0.79088669  0.37202978  0.63632624    -0.21900
C1346       C  0.75409206  0.36997532  0.63835461    -0.09900
C1347       C  0.73427399  0.38777689  0.61290307     0.28900
C1348       C  0.75121501  0.40479523  0.58481240    -0.21900
C1349       C  0.78807568  0.40547394  0.58248860    -0.09900
C1350       C  0.80760562  0.39000677  0.60940186     0.28900
F1351       F  0.84303206  0.38929845  0.60803814    -0.20500
H1352       H  0.80725509  0.35855680  0.65519815     0.17300
H1353       H  0.73555566  0.41642683  0.56417143     0.17300
F1354       F  0.69888456  0.38693060  0.61389358    -0.20500
C1355       C  0.83314135  0.14342509  0.66276186    -0.21900
C1356       C  0.83116981  0.11364541  0.68391647    -0.09900
C1357       C  0.80631871  0.11286325  0.71139162     0.28900
C1358       C  0.78176794  0.13993175  0.71478139    -0.21900
C1359       C  0.78124220  0.16747373  0.69048542    -0.09900
C1360       C  0.80760136  0.16899846  0.66461396     0.28900
F1361       F  0.80776123  0.19391010  0.63925216    -0.20500
H1362       H  0.85221812  0.14532309  0.64178854     0.17300
H1363       H  0.76239534  0.13862732  0.73553262     0.17300
F1364       F  0.80414392  0.08509616  0.73346657    -0.20500
C1365       C  0.71383590  0.15409143  0.82300660    -0.21900
C1366       C  0.69124522  0.17877252  0.80730549    -0.09900
C1367       C  0.65499418  0.17154303  0.80760052     0.28900
C1368       C  0.64193288  0.14143503  0.82350132    -0.21900
C1369       C  0.66422641  0.11648885  0.83855452    -0.09900
C1370       C  0.70054863  0.12292893  0.83794681     0.28900
F1371       F  0.72312227  0.09932244  0.85206007    -0.20500
H1372       H  0.74172293  0.15849164  0.82299712     0.17300
H1373       H  0.61400194  0.13718683  0.82313097     0.17300
F1374       F  0.63149142  0.19402045  0.79307542    -0.20500
C1375       C  0.88313391  0.40045339  0.84852986    -0.21900
C1376       C  0.90872368  0.37520059  0.85551809    -0.09900
C1377       C  0.90630770  0.34197405  0.83933807     0.28900
C1378       C  0.87972269  0.33528042  0.81501025    -0.21900
C1379       C  0.85560785  0.36168853  0.80643881    -0.09900
C1380       C  0.85761852  0.39431776  0.82372360     0.28900
F1381       F  0.83552366  0.42118244  0.81597859    -0.20500
H1382       H  0.88425767  0.42627781  0.86012574     0.17300
H1383       H  0.87811076  0.30974736  0.80283450     0.17300
F1384       F  0.93028655  0.31648980  0.84603116    -0.20500
C1385       C  0.88024948  0.22834634  0.66591888    -0.21900
C1386       C  0.90409493  0.21129495  0.68803343    -0.09900
C1387       C  0.89599699  0.20946014  0.72423880     0.28900
C1388       C  0.86435641  0.22371835  0.73755215    -0.21900
C1389       C  0.84072397  0.24139522  0.71531929    -0.09900
C1390       C  0.84965399  0.24384918  0.67924787     0.28900
F1391       F  0.82858781  0.26109879  0.65629024    -0.20500
H1392       H  0.88588035  0.23075185  0.63814200     0.17300
H1393       H  0.85878498  0.22167236  0.76535116     0.17300
F1394       F  0.91858905  0.19368765  0.74673712    -0.20500
C1395       C  0.80095946  0.39060716  0.89308770    -0.21900
C1396       C  0.82224141  0.37226571  0.91626922    -0.09900
C1397       C  0.82678156  0.33581885  0.91160507     0.28900
C1398       C  0.80957854  0.31804896  0.88418133    -0.21900
C1399       C  0.78659696  0.33630333  0.86204811    -0.09900
C1400       C  0.78284415  0.37314833  0.86693649     0.28900
F1401       F  0.76085357  0.39292509  0.84702737    -0.20500
H1402       H  0.79634871  0.41838184  0.89672663     0.17300
H1403       H  0.81309234  0.29006804  0.88121250     0.17300
F1404       F  0.84705615  0.31733978  0.93422651    -0.20500
C1405       C  0.68474053  0.22812236  0.95061162    -0.21900
C1406       C  0.66084229  0.20030920  0.95045011    -0.09900
C1407       C  0.64488652  0.19084296  0.91863233     0.28900
C1408       C  0.64925608  0.21133952  0.88901626    -0.21900
C1409       C  0.67092648  0.24075725  0.88957862    -0.09900
C1410       C  0.69004942  0.24810206  0.92028534     0.28900
F1411       F  0.71232500  0.27553788  0.92175774    -0.20500
H1412       H  0.69773177  0.23574013  0.97457754     0.17300
H1413       H  0.63429515  0.20482508  0.86609349     0.17300
F1414       F  0.62317291  0.16300252  0.91639662    -0.20500
C1415       C  0.62682340  0.48061239  0.15499820    -0.21900
C1416       C  0.63206713  0.51076553  0.17525396    -0.09900
C1417       C  0.65535412  0.50908527  0.20393018     0.28900
C1418       C  0.67382583  0.47802105  0.21096055    -0.21900
C1419       C  0.66964671  0.44851433  0.18933443    -0.09900
C1420       C  0.64577986  0.45034168  0.16120007     0.28900
F1421       F  0.64173236  0.42352255  0.13817138    -0.20500
H1422       H  0.60910126  0.48067513  0.13280694     0.17300
H1423       H  0.69183500  0.47726453  0.23290593     0.17300
F1424       F  0.66117433  0.53749658  0.22445791    -0.20500
C1425       C  0.78792465  0.42360981  0.31697186    -0.21900
C1426       C  0.75149855  0.42009193  0.31341318    -0.09900
C1427       C  0.72953231  0.44493655  0.32949608     0.28900
C1428       C  0.74410576  0.47314589  0.34795103    -0.21900
C1429       C  0.78063054  0.47625534  0.35146281    -0.09900
C1430       C  0.80232320  0.45077625  0.33633194     0.28900
F1431       F  0.83762353  0.45322140  0.33826496    -0.20500
H1432       H  0.80564322  0.40525163  0.30453634     0.17300
H1433       H  0.72696239  0.49302743  0.35876989     0.17300
F1434       F  0.69436175  0.44312726  0.32572781    -0.20500
C1435       C  0.80709583  0.38050580  0.39300189    -0.21900
C1436       C  0.78129431  0.35451687  0.39304802    -0.09900
C1437       C  0.76311323  0.34800600  0.42449914     0.28900
C1438       C  0.77133301  0.36676447  0.45512177    -0.21900
C1439       C  0.79765002  0.39235354  0.45486487    -0.09900
C1440       C  0.81474707  0.39959888  0.42300771     0.28900
F1441       F  0.83959859  0.42465863  0.42066665    -0.20500
H1442       H  0.82221364  0.38590628  0.36965361     0.17300
H1443       H  0.75779589  0.36047355  0.47925628     0.17300
F1444       F  0.73810919  0.32309112  0.42599934    -0.20500
C1445       C  0.63580082  0.22245489  0.39690230    -0.21900
C1446       C  0.61759566  0.24441543  0.41987681    -0.09900
C1447       C  0.61847827  0.28091866  0.41444543     0.28900
C1448       C  0.63720970  0.29496623  0.38606422    -0.21900
C1449       C  0.65655323  0.27287855  0.36376986    -0.09900
C1450       C  0.65566424  0.23632958  0.36975019     0.28900
F1451       F  0.67434781  0.21356427  0.34960795    -0.20500
H1452       H  0.63638256  0.19443913  0.40121561     0.17300
H1453       H  0.63757177  0.32303256  0.38227271     0.17300
F1454       F  0.60189276  0.30295454  0.43704758    -0.20500
C1455       C  0.62845497  0.13168917  0.15228750    -0.21900
C1456       C  0.65013647  0.10221248  0.15591798    -0.09900
C1457       C  0.67928188  0.10428726  0.17854956     0.28900
C1458       C  0.68522176  0.13482477  0.19815373    -0.21900
C1459       C  0.66217074  0.16350429  0.19570913    -0.09900
C1460       C  0.63374013  0.16146526  0.17227913     0.28900
F1461       F  0.60967438  0.18759208  0.16960288    -0.20500
H1462       H  0.60589363  0.13134156  0.13512203     0.17300
H1463       H  0.70755458  0.13583320  0.21559813     0.17300
F1464       F  0.70147226  0.07673051  0.18256648    -0.20500
C1465       C  0.80506739  0.16969485  0.25799186    -0.21900
C1466       C  0.78490605  0.19103212  0.28026254    -0.09900
C1467       C  0.78547504  0.18443822  0.31685207     0.28900
C1468       C  0.80555612  0.15730498  0.33054490    -0.21900
C1469       C  0.82437488  0.13511051  0.30830511    -0.09900
C1470       C  0.82416128  0.14141767  0.27183371     0.28900
F1471       F  0.84188605  0.11986552  0.24964567    -0.20500
H1472       H  0.80514004  0.17419395  0.22990978     0.17300
H1473       H  0.80469483  0.15237193  0.35856086     0.17300
F1474       F  0.76621168  0.20386345  0.33976977    -0.20500
C1475       C  0.76547980  0.34643484  0.07542917    -0.21900
C1476       C  0.76920372  0.36773383  0.10530400    -0.09900
C1477       C  0.79174044  0.39669835  0.10356137     0.28900
C1478       C  0.80997681  0.40393861  0.07306071    -0.21900
C1479       C  0.80583414  0.38341660  0.04284133    -0.09900
C1480       C  0.78354355  0.35418283  0.04431786     0.28900
F1481       F  0.77854397  0.33354638  0.01574896    -0.20500
H1482       H  0.74839029  0.32395092  0.07605153     0.17300
H1483       H  0.82676535  0.42665326  0.07307417     0.17300
F1484       F  0.79547999  0.41918821  0.13091697    -0.20500
C1485       C  0.69782079  0.20104448  0.08432363    -0.21900
C1486       C  0.66153446  0.20070892  0.07822169    -0.09900
C1487       C  0.63948097  0.21996572  0.10044157     0.28900
C1488       C  0.65345884  0.24019245  0.12729631    -0.21900
C1489       C  0.68971080  0.24101257  0.13353390    -0.09900
C1490       C  0.71185086  0.22058258  0.11218802     0.28900
F1491       F  0.74690896  0.22053492  0.11730341    -0.20500
H1492       H  0.71528342  0.18674859  0.06706261     0.17300
H1493       H  0.63556615  0.25537986  0.14331267     0.17300
F1494       F  0.60446542  0.22107009  0.09491396    -0.20500
C1495       C  0.04882257  0.37632783  0.13103664    -0.21900
C1496       C  0.01752160  0.36163533  0.14279214    -0.09900
C1497       C  0.01825657  0.33862670  0.17170881     0.28900
C1498       C  0.04928643  0.33352287  0.19037778    -0.21900
C1499       C  0.07962098  0.35166309  0.18082200    -0.09900
C1500       C  0.07931055  0.37212813  0.15012634     0.28900
F1501       F  0.10769923  0.39031535  0.13966867    -0.20500
H1502       H  0.04926624  0.39354442  0.10844305     0.17300
H1503       H  0.04895633  0.31708574  0.21354170     0.17300
F1504       F  0.98871984  0.32329101  0.18373305    -0.20500
C1505       C  0.88462227  0.32829597  0.14521339    -0.21900
C1506       C  0.89049585  0.36465805  0.14477539    -0.09900
C1507       C  0.86781612  0.38680566  0.16338112     0.28900
C1508       C  0.84061092  0.37280739  0.18297508    -0.21900
C1509       C  0.83472496  0.33645203  0.18397325    -0.09900
C1510       C  0.85660201  0.31424849  0.16423920     0.28900
F1511       F  0.85186557  0.27910118  0.16445169    -0.20500
H1512       H  0.90220543  0.31075965  0.13141933     0.17300
H1513       H  0.82420490  0.39071115  0.19773047     0.17300
F1514       F  0.87329797  0.42184211  0.16468214    -0.20500
C1515       C  0.07514049  0.22263202  0.33077473    -0.21900
C1516       C  0.05134333  0.20262479  0.31212547    -0.09900
C1517       C  0.05531686  0.19949295  0.27528605     0.28900
C1518       C  0.08317415  0.21603253  0.25768700    -0.21900
C1519       C  0.10640642  0.23719256  0.27644907    -0.09900
C1520       C  0.10164389  0.24025863  0.31348886     0.28900
F1521       F  0.12222830  0.26092941  0.33371043    -0.20500
H1522       H  0.07198912  0.22642695  0.35881802     0.17300
H1523       H  0.08568329  0.21345853  0.22945970     0.17300
F1524       F  0.03175225  0.18115915  0.25627838    -0.20500
C1525       C  0.89591738  0.21381757  0.34659279    -0.21900
C1526       C  0.92526270  0.21665999  0.32476774    -0.09900
C1527       C  0.92294656  0.23802284  0.29458547     0.28900
C1528       C  0.89212270  0.25678141  0.28739072    -0.21900
C1529       C  0.86326452  0.25457061  0.31006109    -0.09900
C1530       C  0.86561784  0.23264885  0.33976506     0.28900
F1531       F  0.83911232  0.23016460  0.36333085    -0.20500
H1532       H  0.89653940  0.19772828  0.37001985     0.17300
H1533       H  0.89091339  0.27318405  0.26419729     0.17300
F1534       F  0.95045401  0.24141883  0.27238948    -0.20500
C1535       C  0.35431545  0.87041036  0.30973983    -0.21900
C1536       C  0.34857227  0.83396245  0.30828984    -0.09900
C1537       C  0.37565430  0.81190145  0.32051858     0.28900
C1538       C  0.40721835  0.82629934  0.33364052    -0.21900
C1539       C  0.41216574  0.86293480  0.33570479    -0.09900
C1540       C  0.38498567  0.88464734  0.32352199     0.28900
F1541       F  0.38841051  0.91997786  0.32365618    -0.20500
H1542       H  0.33453042  0.88852591  0.30026448     0.17300
H1543       H  0.42777602  0.80874300  0.34244802     0.17300
F1544       F  0.37223819  0.77665535  0.31871653    -0.20500
C1545       C  0.35486756  0.71841189  0.16879693    -0.21900
C1546       C  0.35944028  0.74594976  0.19291074    -0.09900
C1547       C  0.38879572  0.74572530  0.21479011     0.28900
C1548       C  0.41469824  0.72035799  0.20978049    -0.21900
C1549       C  0.41157424  0.69518280  0.18280320    -0.09900
C1550       C  0.37992530  0.69254521  0.16465074     0.28900
F1551       F  0.37452695  0.66727573  0.14015318    -0.20500
H1552       H  0.33236372  0.71751740  0.15165272     0.17300
H1553       H  0.43856655  0.72253082  0.22490561     0.17300
F1554       F  0.39375254  0.77126868  0.23902202    -0.20500
C1555       C  0.19219874  0.70484507  0.41537553    -0.21900
C1556       C  0.15531093  0.70266893  0.41589153    -0.09900
C1557       C  0.13671650  0.71460683  0.38663355     0.28900
C1558       C  0.15414891  0.73140333  0.35936318    -0.21900
C1559       C  0.19089002  0.73487338  0.35899834    -0.09900
C1560       C  0.20995301  0.72022248  0.38687088     0.28900
F1561       F  0.24518626  0.72339945  0.38809723    -0.20500
H1562       H  0.20717342  0.69597435  0.43777570     0.17300
H1563       H  0.13825598  0.74338037  0.33926055     0.17300
F1564       F  0.10130224  0.71339406  0.38586323    -0.20500
C1565       C  0.31218544  0.87299100  0.39200874    -0.21900
C1566       C  0.28218900  0.85207688  0.39292386    -0.09900
C1567       C  0.27336527  0.83535212  0.42461893     0.28900
C1568       C  0.29299173  0.84170654  0.45507048    -0.21900
C1569       C  0.32178926  0.86444902  0.45420207    -0.09900
C1570       C  0.33204954  0.87868506  0.42184867     0.28900
F1571       F  0.36045448  0.89956850  0.41909347    -0.20500
H1572       H  0.31984465  0.88632483  0.36828366     0.17300
H1573       H  0.28452908  0.83025774  0.47962823     0.17300
F1574       F  0.24488400  0.81454249  0.42676045    -0.20500
C1575       C  0.06267548  0.87522218  0.33054911    -0.21900
C1576       C  0.04137081  0.89595036  0.30889121    -0.09900
C1577       C  0.05310009  0.90218766  0.27420613     0.28900
C1578       C  0.08537676  0.88808000  0.26193207    -0.21900
C1579       C  0.10644488  0.86664754  0.28360505    -0.09900
C1580       C  0.09413471  0.86041336  0.31822313     0.28900
F1581       F  0.11275917  0.84020297  0.34086263    -0.20500
H1582       H  0.05450212  0.86972890  0.35720421     0.17300
H1583       H  0.09363374  0.89358075  0.23532694     0.17300
F1584       F  0.03364885  0.92240835  0.25232441    -0.20500
C1585       C  0.03133445  0.76459089  0.16895973    -0.21900
C1586       C  0.03322155  0.73514899  0.14649577    -0.09900
C1587       C  0.06399165  0.71530289  0.14530249     0.28900
C1588       C  0.09066900  0.72247551  0.16827049    -0.21900
C1589       C  0.08879764  0.75089156  0.19175554    -0.09900
C1590       C  0.05912444  0.77264658  0.19138806     0.28900
F1591       F  0.05646249  0.80071358  0.21314901    -0.20500
H1592       H  0.00782903  0.78052818  0.17032013     0.17300
H1593       H  0.11291471  0.70480679  0.16770139     0.17300
F1594       F  0.06799467  0.68764316  0.12321367    -0.20500
C1595       C  0.14635888  0.72109803  0.10202113    -0.21900
C1596       C  0.12342756  0.73972252  0.08070785    -0.09900
C1597       C  0.11925985  0.77613895  0.08633537     0.28900
C1598       C  0.13742451  0.79326699  0.11357849    -0.21900
C1599       C  0.16109078  0.77452380  0.13455242    -0.09900
C1600       C  0.16528328  0.73796192  0.12805395     0.28900
F1601       F  0.18770498  0.71768461  0.14693382    -0.20500
H1602       H  0.15094431  0.69346417  0.09746450     0.17300
H1603       H  0.13374169  0.82109917  0.11757215     0.17300
F1604       F  0.09819308  0.79523038  0.06497069    -0.20500
C1605       C  0.25690763  0.86249822  0.08217814    -0.21900
C1606       C  0.27997236  0.86636852  0.11060225    -0.09900
C1607       C  0.30574096  0.89239630  0.10898635     0.28900
C1608       C  0.30968406  0.91231389  0.07889509    -0.21900
C1609       C  0.28888379  0.90632926  0.04919302    -0.09900
C1610       C  0.26126079  0.88226659  0.05161110     0.28900
F1611       F  0.23951047  0.87653772  0.02410293    -0.20500
H1612       H  0.23623910  0.84331194  0.08307601     0.17300
H1613       H  0.33073907  0.93108230  0.07832442     0.17300
F1614       F  0.32865832  0.89757474  0.13563207    -0.20500
C1615       C  0.29054646  0.17421694  0.18748001    -0.21900
C1616       C  0.25500777  0.18319892  0.18236833    -0.09900
C1617       C  0.23435018  0.15918888  0.16350929     0.28900
C1618       C  0.24896871  0.12728379  0.15085615    -0.21900
C1619       C  0.28472335  0.11902978  0.15560536    -0.09900
C1620       C  0.30528155  0.14326878  0.17387216     0.28900
F1621       F  0.33961459  0.13648592  0.17982683    -0.20500
H1622       H  0.30750462  0.19157841  0.20197899     0.17300
H1623       H  0.23233045  0.10903000  0.13713166     0.17300
F1624       F  0.19998147  0.16599080  0.15802703    -0.20500
C1625       C  0.23770676  0.94843785  0.17139488    -0.21900
C1626       C  0.25927333  0.92735690  0.19279610    -0.09900
C1627       C  0.29440701  0.93796429  0.19739915     0.28900
C1628       C  0.30729677  0.96805549  0.18106555    -0.21900
C1629       C  0.28575436  0.98939426  0.16036019    -0.09900
C1630       C  0.25065102  0.97934518  0.15568568     0.28900
F1631       F  0.22907318  0.99904069  0.13539071    -0.20500
H1632       H  0.21078790  0.94119496  0.16705752     0.17300
H1633       H  0.33426745  0.97521790  0.18540329     0.17300
F1634       F  0.31684700  0.91923820  0.21775051    -0.20500
C1635       C  0.13773256  0.11175305  0.28759823    -0.21900
C1636       C  0.11904175  0.11226112  0.31961324    -0.09900
C1637       C  0.12148421  0.14161837  0.34151754     0.28900
C1638       C  0.14430593  0.16806387  0.33321836    -0.21900
C1639       C  0.16420812  0.16723608  0.30210769    -0.09900
C1640       C  0.16008335  0.13918907  0.27872636     0.28900
F1641       F  0.17784080  0.13792565  0.24787708    -0.20500
H1642       H  0.13609424  0.08954319  0.26998636     0.17300
H1643       H  0.14639386  0.18934492  0.35189997     0.17300
F1644       F  0.10330149  0.14437099  0.37205618    -0.20500
C1645       C  0.14003147  0.93069155  0.33238976    -0.21900
C1646       C  0.16718541  0.93480815  0.30789109    -0.09900
C1647       C  0.16627381  0.96336845  0.28482025     0.28900
C1648       C  0.14078929  0.98926619  0.28921108    -0.21900
C1649       C  0.11606427  0.98680487  0.31654867    -0.09900
C1650       C  0.11412802  0.95578126  0.33601964     0.28900
F1651       F  0.08918770  0.95090301  0.36089195    -0.20500
H1652       H  0.13922252  0.90836919  0.34986343     0.17300
H1653       H  0.14232779  0.01253717  0.27306731     0.17300
F1654       F  0.19093937  0.96737797  0.25954686    -0.20500
C1655       C  0.27538623  0.42088954  0.81346347    -0.21900
C1656       C  0.28012036  0.41562219  0.77685902    -0.09900
C1657       C  0.30307187  0.43777648  0.75898383     0.28900
C1658       C  0.31998925  0.46493780  0.77738600    -0.21900
C1659       C  0.31505424  0.46958114  0.81394518    -0.09900
C1660       C  0.29267265  0.44706442  0.83170359     0.28900
F1661       F  0.28570750  0.45163814  0.86641287    -0.20500
H1662       H  0.25793189  0.40465430  0.82858064     0.17300
H1663       H  0.33637911  0.48287461  0.76300829     0.17300
F1664       F  0.30800394  0.43417400  0.72388807    -0.20500
C1665       C  0.18961879  0.46699002  0.68552490    -0.21900
C1666       C  0.16567955  0.43967850  0.68059634    -0.09900
C1667       C  0.13982373  0.44315313  0.65462176     0.28900
C1668       C  0.13673067  0.47393084  0.63572373    -0.21900
C1669       C  0.15832808  0.50263225  0.64293720    -0.09900
C1670       C  0.18601740  0.49834662  0.66688914     0.28900
F1671       F  0.20857182  0.52475041  0.67353680    -0.20500
H1672       H  0.21040154  0.46457608  0.70467941     0.17300
H1673       H  0.11550805  0.47587174  0.61701391     0.17300
F1674       F  0.11574205  0.41789528  0.64892032    -0.20500
C1675       C  0.34908172  0.23247074  0.69226588    -0.21900
C1676       C  0.33972017  0.26808008  0.68843244    -0.09900
C1677       C  0.36412107  0.29017989  0.67193091     0.28900
C1678       C  0.39653530  0.27666481  0.65962522    -0.21900
C1679       C  0.40498956  0.24071332  0.66252536    -0.09900
C1680       C  0.38061722  0.21888300  0.67904375     0.28900
F1681       F  0.38768164  0.18430702  0.68340599    -0.20500
H1682       H  0.33140202  0.21451235  0.70513237     0.17300
H1683       H  0.41495086  0.29430201  0.64740091     0.17300
F1684       F  0.35715647  0.32485421  0.66847645    -0.20500
C1685       C  0.40818641  0.38354665  0.78846836    -0.21900
C1686       C  0.40817746  0.40389998  0.81945700    -0.09900
C1687       C  0.37880400  0.40337340  0.84144551     0.28900
C1688       C  0.35165919  0.38094907  0.83421510    -0.21900
C1689       C  0.35215317  0.35936473  0.80429347    -0.09900
C1690       C  0.38033045  0.36140367  0.78082860     0.28900
F1691       F  0.38130705  0.34181407  0.75105293    -0.20500
H1692       H  0.43036865  0.38364720  0.77076685     0.17300
H1693       H  0.33021014  0.38033360  0.85279489     0.17300
F1694       F  0.37668220  0.42315819  0.87101560    -0.20500
C1695       C  0.28784976  0.19030850  0.81932305    -0.21900
C1696       C  0.25102193  0.19138511  0.81620493    -0.09900
C1697       C  0.23160978  0.16488659  0.83212445     0.28900
C1698       C  0.24906861  0.13693652  0.84888425    -0.21900
C1699       C  0.28599431  0.13556073  0.85059545    -0.09900
C1700       C  0.30505762  0.16327390  0.83660256     0.28900
F1701       F  0.34052795  0.16278216  0.83651044    -0.20500
H1702       H  0.30394767  0.20975697  0.80686807     0.17300
H1703       H  0.23383696  0.11559791  0.85922945     0.17300
F1704       F  0.19632116  0.16455605  0.82920162    -0.20500
C1705       C  0.13109444  0.15990820  0.67915062    -0.21900
C1706       C  0.16291624  0.15798496  0.69742506    -0.09900
C1707       C  0.17181157  0.12655245  0.71457933     0.28900
C1708       C  0.15055633  0.09708682  0.71059060    -0.21900
C1709       C  0.12002325  0.09875923  0.68996600    -0.09900
C1710       C  0.10954711  0.13110524  0.67604203     0.28900
F1711       F  0.07933785  0.13458896  0.65768714    -0.20500
H1712       H  0.12319884  0.18365789  0.66576629     0.17300
H1713       H  0.15916828  0.07245985  0.72190872     0.17300
F1714       F  0.20180076  0.12360306  0.73335412    -0.20500
C1715       C  0.08809837  0.24190609  0.67763422    -0.21900
C1716       C  0.09657256  0.24175592  0.71365012    -0.09900
C1717       C  0.07265336  0.22642942  0.73714893     0.28900
C1718       C  0.04103310  0.21216056  0.72455262    -0.21900
C1719       C  0.03332783  0.21188862  0.68831111    -0.09900
C1720       C  0.05755139  0.22670778  0.66507547     0.28900
F1721       F  0.05124613  0.22760812  0.62999610    -0.20500
H1722       H  0.10566862  0.25341073  0.65859729     0.17300
H1723       H  0.02269378  0.20103634  0.74306832     0.17300
F1724       F  0.07932994  0.22594624  0.77212999    -0.20500
C1725       C  0.06025913  0.33596748  0.80455931    -0.21900
C1726       C  0.07529066  0.36342833  0.78568336    -0.09900
C1727       C  0.06668922  0.39822459  0.79370079     0.28900
C1728       C  0.04480088  0.40560947  0.82152548    -0.21900
C1729       C  0.03018562  0.37846218  0.84117834    -0.09900
C1730       C  0.03725174  0.34343830  0.83207084     0.28900
F1731       F  0.02240175  0.31675522  0.85004073    -0.20500
H1732       H  0.06765776  0.30902218  0.79913960     0.17300
H1733       H  0.03842723  0.43280367  0.82694026     0.17300
F1734       F  0.08090639  0.42516420  0.77548509    -0.20500
C1735       C  0.30672002  0.18947798  0.09024996    -0.21900
C1736       C  0.28427201  0.18875203  0.06134705    -0.09900
C1737       C  0.25445413  0.21076891  0.06143824     0.28900
C1738       C  0.25087778  0.23687686  0.08703197    -0.21900
C1739       C  0.27690554  0.24117469  0.11253065    -0.09900
C1740       C  0.30420862  0.21621032  0.11459038     0.28900
F1741       F  0.33017742  0.21860763  0.13871002    -0.20500
H1742       H  0.32922423  0.17213958  0.09182446     0.17300
H1743       H  0.22868619  0.25466187  0.08590823     0.17300
F1744       F  0.23039430  0.20899663  0.03533886    -0.20500
C1745       C  0.31981503  0.22720147  0.92116216    -0.21900
C1746       C  0.29386122  0.20824450  0.93844444    -0.09900
C1747       C  0.25842777  0.21492741  0.93080204     0.28900
C1748       C  0.24942579  0.23941638  0.90502704    -0.21900
C1749       C  0.27573823  0.25752759  0.88731129    -0.09900
C1750       C  0.31089116  0.25190315  0.89619778     0.28900
F1751       F  0.33679228  0.26976431  0.87986259    -0.20500
H1752       H  0.34713149  0.22355554  0.92752062     0.17300
H1753       H  0.22231667  0.24301549  0.89780851     0.17300
F1754       F  0.23273365  0.19723527  0.94755344    -0.20500
C1755       C  0.12689926  0.32721787  0.06509433    -0.21900
C1756       C  0.13376681  0.36199395  0.05481884    -0.09900
C1757       C  0.15649940  0.38177461  0.07559150     0.28900
C1758       C  0.17155288  0.36753702  0.10589491    -0.21900
C1759       C  0.16391208  0.33327225  0.11741453    -0.09900
C1760       C  0.14144673  0.31304932  0.09630627     0.28900
F1761       F  0.13350093  0.27983705  0.10571266    -0.20500
H1762       H  0.10971624  0.31123073  0.04927090     0.17300
H1763       H  0.18889473  0.38410346  0.12092399     0.17300
F1764       F  0.16469570  0.41499579  0.06626734    -0.20500
C1765       C  0.13104603  0.32853135  0.92061804    -0.21900
C1766       C  0.12525756  0.36491268  0.92483117    -0.09900
C1767       C  0.13159668  0.38650877  0.89554932     0.28900
C1768       C  0.14477238  0.37239223  0.86402172    -0.21900
C1769       C  0.15151588  0.33624536  0.86004947    -0.09900
C1770       C  0.14360679  0.31428787  0.88861584     0.28900
F1771       F  0.14988599  0.27937047  0.88640236    -0.20500
H1772       H  0.12640093  0.31102746  0.94243777     0.17300
H1773       H  0.15064477  0.39017475  0.84273193     0.17300
F1774       F  0.12710987  0.42169488  0.89784902    -0.20500
C1775       C  0.55158967  0.40307807  0.22753844    -0.21900
C1776       C  0.54717892  0.40596852  0.19091509    -0.09900
C1777       C  0.57208300  0.39082976  0.16851353     0.28900
C1778       C  0.60004588  0.37213521  0.18235777    -0.21900
C1779       C  0.60478669  0.36900025  0.21886242    -0.09900
C1780       C  0.58059666  0.38518772  0.24152890     0.28900
F1781       F  0.58402473  0.38234831  0.27688086    -0.20500
H1782       H  0.53232088  0.41417152  0.24518782     0.17300
H1783       H  0.61802038  0.35980315  0.16415489     0.17300
F1784       F  0.56833415  0.39210013  0.13306463    -0.20500
C1785       C  0.42032208  0.37308142  0.20747057    -0.21900
C1786       C  0.41998111  0.40211439  0.18474734    -0.09900
C1787       C  0.38822432  0.41219597  0.16904906     0.28900
C1788       C  0.35867224  0.39163330  0.17312628    -0.21900
C1789       C  0.35948822  0.36118465  0.19381211    -0.09900
C1790       C  0.39033787  0.35283415  0.21214360     0.28900
F1791       F  0.39225769  0.32411714  0.23299714    -0.20500
H1792       H  0.44425296  0.36481595  0.22015776     0.17300
H1793       H  0.33537962  0.39911326  0.15902167     0.17300
F1794       F  0.38589114  0.44111037  0.14844622    -0.20500
C1795       C  0.54489867  0.20703763  0.33806657    -0.21900
C1796       C  0.51404040  0.22563477  0.33095423    -0.09900
C1797       C  0.51531199  0.25408011  0.30735985     0.28900
C1798       C  0.54680516  0.26275255  0.29073623    -0.21900
C1799       C  0.57732900  0.24310077  0.29706907    -0.09900
C1800       C  0.57585144  0.21511007  0.32115476     0.28900
F1801       F  0.60385194  0.19408099  0.32744916    -0.20500
H1802       H  0.54508458  0.18507318  0.35605541     0.17300
H1803       H  0.54711905  0.28442040  0.27239064     0.17300
F1804       F  0.48615473  0.27285975  0.29945407    -0.20500
C1805       C  0.33117029  0.23273344  0.31400008    -0.21900
C1806       C  0.32992123  0.26954870  0.31044221    -0.09900
C1807       C  0.35723864  0.28910573  0.32489649     0.28900
C1808       C  0.38574133  0.27180325  0.34086818    -0.21900
C1809       C  0.38692823  0.23488511  0.34361965    -0.09900
C1810       C  0.35861731  0.21570768  0.33103583     0.28900
F1811       F  0.35885637  0.18020110  0.33215567    -0.20500
H1812       H  0.31134583  0.21650345  0.30221640     0.17300
H1813       H  0.40758420  0.28719055  0.34997004     0.17300
F1814       F  0.35779107  0.32439179  0.32119046    -0.20500
C1815       C  0.30898020  0.48002271  0.22125438    -0.21900
C1816       C  0.30755923  0.48857976  0.18519021    -0.09900
C1817       C  0.29077490  0.46511831  0.16245736     0.28900
C1818       C  0.27544941  0.43453996  0.17532980    -0.21900
C1819       C  0.27705376  0.42534968  0.21121301    -0.09900
C1820       C  0.29441405  0.44850028  0.23411953     0.28900
F1821       F  0.29680578  0.44109245  0.26886798    -0.20500
H1822       H  0.32170367  0.49762625  0.23944982     0.17300
H1823       H  0.26244764  0.41763192  0.15665348     0.17300
F1824       F  0.28806775  0.47229165  0.12764439    -0.20500
C1825       C  0.29577340  0.64375180  0.16311470    -0.21900
C1826       C  0.31090532  0.61872584  0.18541897    -0.09900
C1827       C  0.31246446  0.62672402  0.22169187     0.28900
C1828       C  0.30004173  0.65933608  0.23482599    -0.21900
C1829       C  0.28455007  0.68431862  0.21234392    -0.09900
C1830       C  0.28209976  0.67542024  0.17622833     0.28900
F1831       F  0.26702996  0.69775594  0.15293458    -0.20500
H1832       H  0.29366428  0.63839730  0.13526844     0.17300
H1833       H  0.30190086  0.66470407  0.26266734     0.17300
F1834       F  0.32639664  0.60317450  0.24443943    -0.20500
C1835       C  0.12083457  0.46466278  0.34110129    -0.21900
C1836       C  0.14659387  0.48968501  0.34702508    -0.09900
C1837       C  0.17833476  0.48751551  0.32825196     0.28900
C1838       C  0.18297465  0.46188389  0.30242854    -0.21900
C1839       C  0.15587051  0.43872239  0.29479063    -0.09900
C1840       C  0.12473224  0.44032140  0.31465443     0.28900
F1841       F  0.09712201  0.41922797  0.30786844    -0.20500
H1842       H  0.09598049  0.46564115  0.35474827     0.17300
H1843       H  0.20750168  0.46037102  0.28823450     0.17300
F1844       F  0.20418459  0.51096545  0.33380727    -0.20500
C1845       C  0.11784602  0.63368521  0.32331471    -0.21900
C1846       C  0.14389904  0.61315031  0.33893787    -0.09900
C1847       C  0.17915277  0.61812028  0.32983353     0.28900
C1848       C  0.18815007  0.64432063  0.30617725    -0.21900
C1849       C  0.16197321  0.66522655  0.29135855    -0.09900
C1850       C  0.12669805  0.65919470  0.29932036     0.28900
F1851       F  0.10076485  0.67843826  0.28422816    -0.20500
H1852       H  0.09050834  0.62930926  0.32877596     0.17300
H1853       H  0.21537488  0.64920396  0.30059530     0.17300
F1854       F  0.20480101  0.59803534  0.34414608    -0.20500
C1855       C  0.13469250  0.38392837  0.39931055    -0.21900
C1856       C  0.15757723  0.39451621  0.42605173    -0.09900
C1857       C  0.19385947  0.39181414  0.41914333     0.28900
C1858       C  0.20652115  0.37872217  0.38657296    -0.21900
C1859       C  0.18345790  0.36685242  0.36035944    -0.09900
C1860       C  0.14721511  0.36973611  0.36748884     0.28900
F1861       F  0.12345746  0.35819850  0.34381227    -0.20500
H1862       H  0.10675788  0.38525189  0.40359200     0.17300
H1863       H  0.23442347  0.37667979  0.38240958     0.17300
F1864       F  0.21720508  0.40185723  0.44390173    -0.20500
C1865       C  0.13880421  0.37212353  0.58086033    -0.21900
C1866       C  0.16105028  0.38818701  0.55663863    -0.09900
C1867       C  0.19728282  0.38785814  0.56389903     0.28900
C1868       C  0.21048001  0.37239861  0.59513462    -0.21900
C1869       C  0.18797985  0.35581452  0.61915799    -0.09900
C1870       C  0.15183613  0.35568717  0.61104297     0.28900
F1871       F  0.12845275  0.33984962  0.63250215    -0.20500
H1872       H  0.11098361  0.37145227  0.57595808     0.17300
H1873       H  0.23825854  0.37287909  0.60018891     0.17300
F1874       F  0.21986532  0.40297981  0.54114182    -0.20500
C1875       C  0.27600503  0.20885280  0.38847531    -0.21900
C1876       C  0.26850172  0.24408734  0.38137972    -0.09900
C1877       C  0.28563239  0.27052461  0.39987683     0.28900
C1878       C  0.31016237  0.26144345  0.42543641    -0.21900
C1879       C  0.31794591  0.22602746  0.43215446    -0.09900
C1880       C  0.30073018  0.19977137  0.41323084     0.28900
F1881       F  0.30632950  0.16524058  0.41967265    -0.20500
H1882       H  0.26306199  0.18812397  0.37417450     0.17300
H1883       H  0.32287235  0.28195135  0.44020203     0.17300
F1884       F  0.27971266  0.30474702  0.39228039    -0.20500
C1885       C  0.29765882  0.25950303  0.55241742    -0.21900
C1886       C  0.32689140  0.23715279  0.55592134    -0.09900
C1887       C  0.33360348  0.22128183  0.58839349     0.28900
C1888       C  0.30871330  0.22308134  0.61465466    -0.21900
C1889       C  0.27782838  0.24269356  0.61015320    -0.09900
C1890       C  0.27319028  0.26227402  0.57937805     0.28900
F1891       F  0.24414645  0.28221148  0.57432573    -0.20500
H1892       H  0.29202460  0.27250863  0.52782181     0.17300
H1893       H  0.31322019  0.20786203  0.63805664     0.17300
F1894       F  0.36257808  0.20125268  0.59372153    -0.20500
loop_ 
_geom_bond_atom_site_label_1 
_geom_bond_atom_site_label_2 
_geom_bond_distance 
_geom_bond_site_symmetry_2 
_ccdc_geom_bond_type 
C1            N2   1.356       .  A
C1            N6   1.351       .  A
C1         C1886   1.466       .  S
N2            C3   1.349       .  A
C3            N4   1.352       .  A
C3          C863   1.452       .  S
N4            C5   1.356       .  A
C5            N6   1.350       .  A
C5         C1879   1.459       .  S
C7            N8   1.374       .  A
C7           N12   1.368       .  A
C7         C1856   1.515       .  S
N8            C9   1.371       .  A
C9           N10   1.366       .  A
C9          C761   1.512       .  S
N10          C11   1.369       .  A
C11          N12   1.367       .  A
C11        C1866   1.504       .  S
C13          N14   1.357       .  A
C13          N18   1.349       .  A
C13        C1836   1.465       .  S
N14          C15   1.351       .  A
C15          N16   1.353       .  A
C15         C784   1.456       .  S
N16          C17   1.358       .  A
C17          N18   1.350       .  A
C17        C1846   1.455       .  S
C19          N20   1.367       .  A
C19          N24   1.367       .  A
C19        C1816   1.503       .  S
N20          C21   1.364       .  A
C21          N22   1.369       .  A
C21         C818   1.506       .  S
N22          C23   1.373       .  A
C23          N24   1.368       .  A
C23        C1826   1.510       .  S
C25          N26   1.354       .  A
C25          N30   1.355       .  A
C25        C1796   1.483       .  S
N26          C27   1.359       .  A
C27          N28   1.375       .  A
C27        C1809   1.487       .  S
N28          C29   1.368       .  A
C29          N30   1.352       .  A
C29         C886   1.485       .  S
C31          N32   1.355       .  A
C31          N36   1.357       .  A
C31        C1786   1.482       .  S
N32          C33   1.354       .  A
C33          N34   1.357       .  A
C33         C806   1.468       .  S
N34          C35   1.365       .  A
C35          N36   1.359       .  A
C35        C1776   1.473       .  S
C37          N38   1.367       .  A
C37          N42   1.372       .  A
C37        C1766   1.513       .  S
N38          C39   1.364   1_556  A
C39          N40   1.367       .  A
C39        C1756   1.497       .  S
N40          C41   1.365   1_554  A
C41          N42   1.370       .  A
C41         C528   1.506       .  S
C43          N44   1.359       .  A
C43          N48   1.351       .  A
C43        C1746   1.463       .  S
N44          C45   1.354       .  A
C45          N46   1.353   1_556  A
C45         C561   1.465   1_556  S
N46          C47   1.361       .  A
C47          N48   1.352   1_554  A
C47        C1736   1.474       .  S
O49          C76   1.266       .  A
O49         Mn75   2.081       .  S
C50        C1889   1.466       .  S
C50          O83   1.268       .  A
C50          O80   1.262       .  A
O51         Mn58   2.178       .  S
O51         Mn69   2.093       .  S
O51         Mn73   2.176       .  S
O51         Mn75   2.105       .  S
O52          C62   1.271       .  A
O52         Mn86   2.084       .  S
O53          C76   1.260       .  A
O53         Mn69   2.035       .  S
O54          C81   1.263       .  A
O54         Mn73   2.165       .  S
O55         Mn86   1.954       .  S
O55         Mn75   1.954       .  S
O55          C71   1.219       .  S
C56        C1696   1.486       .  S
C56          O59   1.265       .  A
C56          O82   1.234       .  A
O57         Mn77   2.091       .  S
O57         Mn58   2.177       .  S
O57         Mn91   2.097       .  S
O57         Mn73   2.166       .  S
Mn58         O87   2.175       .  S
Mn58         O63   2.183       .  S
Mn58         O90   2.177       .  S
Mn58         O64   2.184       .  S
O59         Mn73   2.165       .  S
O60          C62   1.271       .  A
O60         Mn67   2.094       .  S
C61        C1676   1.513       .  S
C61          O87   1.265       .  A
C61          O74   1.217       .  S
C62        C1706   1.482       .  S
O63          C88   1.267       .  A
O64         Mn67   2.103       .  S
O64         Mn86   2.097       .  S
O64         Mn73   2.169       .  S
O65         Mn69   1.988       .  S
O65         Mn91   1.987       .  S
O65          C88   1.231       .  A
C66        C1749   1.454       .  S
C66          O92   1.267       .  A
C66          O68   1.268       .  A
Mn67         O80   2.052       .  S
Mn67         O82   2.008       .  S
Mn67         O74   1.978       .  S
O68         Mn91   2.079       .  S
Mn69         O85   2.074       .  S
Mn69         O79   1.973       .  S
O70          C72   1.270       .  A
O70         Mn75   2.084       .  S
C71        C1716   1.500       .  S
C71          O89   1.263       .  A
C72        C1666   1.474       .  S
C72          O85   1.268       .  A
Mn73         O89   2.155       .  S
O74         Mn77   1.969       .  S
Mn75         O93   1.940       .  S
C76        C1726   1.443       .  S
Mn77         O84   2.082       .  S
Mn77         O92   2.070       .  S
Mn77         O82   2.001       .  S
C78        C1689   1.468       .  S
C78          O84   1.270       .  A
C78          O94   1.268       .  A
O79         Mn91   1.975       .  S
O79          C81   1.216       .  S
C81        C1769   1.508       .  S
O83         Mn86   2.079       .  S
Mn86         O93   1.954       .  S
C88        C1656   1.494       .  S
O90          C95   1.267       .  A
Mn91         O94   2.069       .  S
O93          C95   1.217       .  S
C95        C1869   1.513       .  S
C96          N97   1.353       .  A
C96         N101   1.357       .  A
C96        C1649   1.469   1_545  S
N97          C98   1.351       .  A
C98          N99   1.358       .  A
C98        C1636   1.472       .  S
N99         C100   1.351       .  A
C100        N101   1.350       .  A
C100        C483   1.457       .  S
C102        N103   1.368       .  A
C102        N107   1.366       .  A
C102       C1629   1.499   1_545  S
N103        C104   1.365       .  A
C104        N105   1.370       .  A
C104        C573   1.506       .  S
N105        C106   1.372       .  A
C106        N107   1.366       .  A
C106       C1619   1.508       .  S
O108        C135   1.268       .  A
O108       Mn134   2.075       .  S
C109       C1849   1.447       .  S
C109        O142   1.266       .  A
C109        O139   1.265       .  A
O110       Mn117   2.175       .  S
O110       Mn128   2.091       .  S
O110       Mn132   2.181       .  S
O110       Mn134   2.086       .  S
O111        C121   1.266       .  A
O111       Mn145   2.058       .  S
O112        C135   1.270       .  A
O112       Mn128   2.085       .  S
O113        C140   1.267       .  A
O113       Mn132   2.169       .  S
O114       Mn145   1.975       .  S
O114       Mn134   1.980       .  S
O114        C130   1.227       .  A
C115       C1579   1.523       .  S
C115        O118   1.268       .  A
C115        O141   1.218       .  S
O116       Mn136   2.103       .  S
O116       Mn117   2.163       .  S
O116       Mn150   2.088       .  S
O116       Mn132   2.174       .  S
Mn117       O146   2.172       .  S
Mn117       O122   2.194       .  S
Mn117       O149   2.182       .  S
Mn117       O123   2.175       .  S
O118       Mn132   2.183       .  S
O119        C121   1.272       .  A
O119       Mn126   2.095       .  S
C120       C1559   1.495       .  S
C120        O146   1.268       .  A
C120        O133   1.213       .  S
C121       C1589   1.471       .  S
O122        C147   1.270       .  A
O123       Mn126   2.092       .  S
O123       Mn145   2.088       .  S
O123       Mn132   2.167       .  S
O124       Mn128   1.951       .  S
O124       Mn150   1.949       .  S
O124        C147   1.214       .  S
C125       C1646   1.467       .  S
C125        O151   1.262       .  A
C125        O127   1.270       .  A
Mn126       O139   2.066       .  S
Mn126       O141   1.963       .  S
Mn126       O133   1.936       .  S
O127       Mn150   2.090       .  S
Mn128       O144   2.101       .  S
Mn128       O138   1.955       .  S
O129        C131   1.260       .  A
O129       Mn134   2.047       .  S
C130       C1599   1.496       .  S
C130        O148   1.266       .  A
C131       C1546   1.468       .  S
C131        O144   1.271       .  A
Mn132       O148   2.191       .  S
O133       Mn136   1.949       .  S
Mn134       O152   1.984       .  S
C135       C1606   1.475       .  S
Mn136       O143   2.094       .  S
Mn136       O151   2.059       .  S
Mn136       O141   1.972       .  S
C137       C1566   1.483       .  S
C137        O143   1.273       .  A
C137        O153   1.274       .  A
O138       Mn150   1.967       .  S
O138        C140   1.218       .  S
C140       C1626   1.511       .  S
O142       Mn145   2.065       .  S
Mn145       O152   1.971       .  S
C147       C1536   1.514       .  S
O149        C154   1.267       .  A
Mn150       O153   2.094       .  S
O152        C154   1.216       .  S
C154       C1829   1.519       .  S
C155        N156   1.353       .  A
C155        N160   1.355       .  A
C155       C1526   1.484       .  S
N156        C157   1.358   1_655  A
C157        N158   1.375       .  A
C157       C1516   1.480       .  S
N158        C159   1.368   1_455  A
C159        N160   1.353       .  A
C159        C506   1.488       .  S
C161        N162   1.357       .  A
C161        N166   1.368       .  A
C161       C1506   1.475       .  S
N162        C163   1.353       .  A
C163        N164   1.354       .  A
C163       C1496   1.473   1_655  S
N164        C165   1.350       .  A
C165        N166   1.362       .  A
C165        C516   1.471       .  S
O167        C194   1.267       .  A
O167       Mn193   2.073       .  S
C168       C1799   1.483       .  S
C168        O201   1.268       .  A
C168        O198   1.273       .  A
O169       Mn176   2.167       .  S
O169       Mn187   2.097       .  S
O169       Mn191   2.169       .  S
O169       Mn193   2.093       .  S
O170        C180   1.274       .  A
O170       Mn204   2.105       .  S
O171        C194   1.274       .  A
O171       Mn187   2.102       .  S
O172        C199   1.256       .  A
O172       Mn191   2.128       .  S
O173       Mn204   1.948       .  S
O173       Mn193   1.941       .  S
O173        C189   1.209       .  S
C174       C1489   1.485       .  S
C174        O177   1.256       .  A
C174        O200   1.215       .  S
O175       Mn195   2.098       .  S
O175       Mn176   2.169       .  S
O175       Mn209   2.099       .  S
O175       Mn191   2.164       .  S
Mn176       O205   2.127       .  S
Mn176       O181   2.135       .  S
Mn176       O208   2.140       .  S
Mn176       O182   2.169       .  S
O177       Mn191   2.128       .  S
O178        C180   1.267       .  A
O178       Mn185   2.070       .  S
C179       C1779   1.479       .  S
C179        O205   1.255       .  A
C179        O192   1.214       .  S
C180       C1459   1.482       .  S
O181        C206   1.257       .  A
O182       Mn185   2.099       .  S
O182       Mn204   2.089       .  S
O182       Mn191   2.168       .  S
O183       Mn187   1.946       .  S
O183       Mn209   1.952       .  S
O183        C206   1.213       .  S
C184       C1476   1.481       .  S
C184        O210   1.273       .  A
C184        O186   1.268       .  A
Mn185       O198   2.099       .  S
Mn185       O200   1.946       .  S
Mn185       O192   1.950       .  S
O186       Mn209   2.072       .  S
Mn187       O203   2.082       .  S
Mn187       O197   1.958       .  S
O188        C190   1.274       .  A
O188       Mn193   2.103       .  S
C189       C1466   1.481       .  S
C189        O207   1.256       .  A
C190       C1436   1.486       .  S
C190        O203   1.270       .  A
Mn191       O207   2.134       .  S
O192       Mn195   1.948       .  S
Mn193       O211   1.953       .  S
C194       C1529   1.481       .  S
Mn195       O202   2.067       .  S
Mn195       O210   2.101       .  S
Mn195       O200   1.955       .  S
C196       C1419   1.479       .  S
C196        O202   1.267       .  A
C196        O212   1.273       .  A
O197       Mn209   1.946       .  S
O197        C199   1.214       .  S
C199       C1509   1.483       .  S
O201       Mn204   2.076       .  S
Mn204       O211   1.947       .  S
C206       C1426   1.481       .  S
O208        C213   1.257       .  A
Mn209       O212   2.099       .  S
O211        C213   1.210       .  S
C213       C1449   1.485       .  S
C214        N215   1.353       .  A
C214        N219   1.355   1_556  A
C214       C1406   1.477       .  S
N215        C216   1.349   1_556  A
C216        N217   1.361       .  A
C216        C562   1.471       .  S
N217        C218   1.368       .  A
C218        N219   1.358       .  A
C218       C1486   1.475       .  S
C220        N221   1.354       .  A
C220        N225   1.353   1_554  A
C220       C1479   1.481       .  S
N221        C222   1.351   1_554  A
C222        N223   1.367       .  A
C222        C539   1.481       .  S
N223        C224   1.373       .  A
C224        N225   1.358       .  A
C224       C1396   1.475       .  S
C226        N227   1.366       .  A
C226        N231   1.372       .  A
C226       C1386   1.503       .  S
N227        C228   1.364       .  A
C228        N229   1.363   1_655  A
C228       C1719   1.493   1_655  S
N229        C230   1.359   1_455  A
C230        N231   1.369       .  A
C230        C507   1.499       .  S
C232        N233   1.356       .  A
C232        N237   1.349   1_455  A
C232       C1729   1.453       .  S
N233        C234   1.350   1_455  A
C234        N235   1.356       .  A
C234        C551   1.463       .  S
N235        C236   1.363       .  A
C236        N237   1.350       .  A
C236       C1376   1.472       .  S
O238        C265   1.265       .  A
O238       Mn264   2.064       .  S
C239       C1316   1.466       .  S
C239        O272   1.260       .  A
C239        O269   1.269       .  A
O240       Mn247   2.171       .  S
O240       Mn258   2.085       .  S
O240       Mn262   2.172       .  S
O240       Mn264   2.086       .  S
O241        C251   1.267       .  A
O241       Mn275   2.072       .  S
O242        C265   1.274       .  A
O242       Mn258   2.104       .  S
O243        C270   1.264       .  A
O243       Mn262   2.173       .  S
O244       Mn275   1.990       .  S
O244       Mn264   1.982       .  S
O244        C260   1.229       .  A
C245       C1366   1.506       .  S
C245        O248   1.267       .  A
C245        O271   1.215       .  S
O246       Mn266   2.092       .  S
O246       Mn247   2.164       .  S
O246       Mn280   2.097       .  S
O246       Mn262   2.176       .  S
Mn247       O276   2.176       .  S
Mn247       O252   2.169       .  S
Mn247       O279   2.176       .  S
Mn247       O253   2.174       .  S
O248       Mn262   2.176       .  S
O249        C251   1.274       .  A
O249       Mn256   2.097       .  S
C250       C1326   1.512       .  S
C250        O276   1.267       .  A
C250        O263   1.218       .  S
C251       C1409   1.477       .  S
O252        C277   1.266       .  A
O253       Mn256   2.092       .  S
O253       Mn275   2.088       .  S
O253       Mn262   2.173       .  S
O254       Mn258   1.939       .  S
O254       Mn280   1.949       .  S
O254        C277   1.213       .  S
C255       C1359   1.472       .  S
C255        O281   1.272       .  A
C255        O257   1.263       .  A
Mn256       O269   2.095       .  S
Mn256       O271   1.949       .  S
Mn256       O263   1.959       .  S
O257       Mn280   2.058       .  S
Mn258       O274   2.071       .  S
Mn258       O268   1.957       .  S
O259        C261   1.267       .  A
O259       Mn264   2.072       .  S
C260       C1399   1.493       .  S
C260        O278   1.267       .  A
C261       C1296   1.445       .  S
C261        O274   1.266       .  A
Mn262       O278   2.182       .  S
O263       Mn266   1.957       .  S
Mn264       O282   1.966       .  S
C265       C1379   1.473       .  S
Mn266       O273   2.089       .  S
Mn266       O281   2.096       .  S
Mn266       O271   1.959       .  S
C267       C1336   1.480       .  S
C267        O273   1.272       .  A
C267        O283   1.274       .  A
O268       Mn280   1.960       .  S
O268        C270   1.215       .  S
C270       C1389   1.511       .  S
O272       Mn275   2.048       .  S
Mn275       O282   1.979       .  S
C277       C1346   1.496       .  S
O279        C284   1.264       .  A
Mn280       O283   2.091       .  S
O282        C284   1.215       .  S
C284       C1306   1.513       .  S
C285        N286   1.351   1_556  A
C285        N290   1.354       .  A
C285       C1286   1.473       .  S
N286        C287   1.354       .  A
C287        N288   1.376       .  A
C287       C1596   1.479       .  S
N288        C289   1.370       .  A
C289        N290   1.353   1_554  A
C289        C527   1.489       .  S
C291        N292   1.353       .  A
C291        N296   1.354   1_554  A
C291       C1609   1.478       .  S
N292        C293   1.350   1_554  A
C293        N294   1.361       .  A
C293        C596   1.471       .  S
N294        C295   1.369       .  A
C295        N296   1.357       .  A
C295       C1276   1.472       .  S
C297        N298   1.367       .  A
C297        N302   1.355       .  A
C297       C1266   1.464   1_545  S
N298        C299   1.361       .  A
C299        N300   1.354       .  A
C299        C482   1.476       .  S
N300        C301   1.357       .  A
C301        N302   1.353       .  A
C301       C1709   1.477       .  S
C303        N304   1.354       .  A
C303        N308   1.353       .  A
C303       C1256   1.477       .  S
N304        C305   1.352       .  A
C305        N306   1.366       .  A
C305        C584   1.482       .  S
N306        C307   1.373       .  A
C307        N308   1.357       .  A
C307       C1699   1.482       .  S
O309        C336   1.274       .  A
O309       Mn335   2.104       .  S
C310       C1289   1.479       .  S
C310        O343   1.273       .  A
C310        O340   1.268       .  A
O311       Mn318   2.172       .  S
O311       Mn329   2.092       .  S
O311       Mn333   2.172       .  S
O311       Mn335   2.098       .  S
O312        C322   1.267       .  A
O312       Mn346   2.070       .  S
O313        C336   1.267       .  A
O313       Mn329   2.071       .  S
O314        C341   1.256       .  A
O314       Mn333   2.126       .  S
O315       Mn346   1.949       .  S
O315       Mn335   1.956       .  S
O315        C331   1.214       .  S
C316       C1176   1.484       .  S
C316        O319   1.256       .  A
C316        O342   1.211       .  S
O317       Mn337   2.097       .  S
O317       Mn318   2.176       .  S
O317       Mn351   2.095       .  S
O317       Mn333   2.168       .  S
Mn318       O347   2.130       .  S
Mn318       O323   2.129       .  S
Mn318       O350   2.140       .  S
Mn318       O324   2.165       .  S
O319       Mn333   2.142       .  S
O320        C322   1.272       .  A
O320       Mn327   2.094       .  S
C321       C1236   1.483       .  S
C321        O347   1.256       .  A
C321        O334   1.212       .  S
C322       C1186   1.478       .  S
O323        C348   1.254       .  A
O324       Mn327   2.097       .  S
O324       Mn346   2.095       .  S
O324       Mn333   2.168       .  S
O325       Mn329   1.944       .  S
O325       Mn351   1.940       .  S
O325        C348   1.210       .  S
C326       C1226   1.483       .  S
C326        O352   1.270       .  A
C326        O328   1.273       .  A
Mn327       O340   2.069       .  S
Mn327       O342   1.943       .  S
Mn327       O334   1.946       .  S
O328       Mn351   2.098       .  S
Mn329       O345   2.097       .  S
Mn329       O339   1.944       .  S
O330        C332   1.270       .  A
O330       Mn335   2.082       .  S
C331       C1196   1.477       .  S
C331        O349   1.254       .  A
C332       C1259   1.484       .  S
C332        O345   1.272       .  A
Mn333       O349   2.121       .  S
O334       Mn337   1.950       .  S
Mn335       O353   1.942       .  S
C336       C1209   1.483       .  S
Mn337       O344   2.097       .  S
Mn337       O352   2.075       .  S
Mn337       O342   1.941       .  S
C338       C1246   1.483       .  S
C338        O344   1.273       .  A
C338        O354   1.268       .  A
O339       Mn351   1.955       .  S
O339        C341   1.213       .  S
C341       C1216   1.483       .  S
O343       Mn346   2.097       .  S
Mn346       O353   1.947       .  S
C348       C1269   1.481       .  S
O350        C355   1.257       .  A
Mn351       O354   2.075       .  S
O353        C355   1.212       .  S
C355       C1279   1.484       .  S
C356        N357   1.356       .  A
C356        N361   1.352       .  A
C356       C1166   1.467       .  S
N357        C358   1.349       .  A
C358        N359   1.350   1_655  A
C358        C517   1.459       .  S
N359        C360   1.360       .  A
C360        N361   1.351   1_455  A
C360       C1586   1.469       .  S
C362        N363   1.369       .  A
C362        N367   1.369       .  A
C362       C1156   1.509       .  S
N363        C364   1.366       .  A
C364        N365   1.370   1_655  A
C364        C471   1.511       .  S
N365        C366   1.373       .  A
C366        N367   1.370   1_455  A
C366       C1576   1.512       .  S
C368        N369   1.354       .  A
C368        N373   1.351       .  A
C368       C1149   1.471       .  S
N369        C370   1.357       .  A
C370        N371   1.368       .  A
C370       C1469   1.470       .  S
N371        C372   1.362       .  A
C372        N373   1.350       .  A
C372        C494   1.469       .  S
C374        N375   1.358       .  A
C374        N379   1.372       .  A
C374       C1136   1.475   1_545  S
N375        C376   1.354       .  A
C376        N377   1.356       .  A
C376       C1456   1.484       .  S
N377        C378   1.352       .  A
C378        N379   1.366       .  A
C378        C572   1.485       .  S
O380        C407   1.264       .  A
O380       Mn406   2.059       .  S
C381       C1169   1.466       .  S
C381        O414   1.262       .  A
C381        O411   1.268       .  A
O382       Mn389   2.173       .  S
O382       Mn400   2.093       .  S
O382       Mn404   2.168       .  S
O382       Mn406   2.084       .  S
O383        C393   1.271       .  A
O383       Mn417   2.078       .  S
O384        C407   1.270       .  A
O384       Mn400   2.085       .  S
O385        C412   1.262       .  A
O385       Mn404   2.165       .  S
O386       Mn417   1.953       .  S
O386       Mn406   1.939       .  S
O386        C402   1.213       .  S
C387       C1106   1.505       .  S
C387        O390   1.267       .  A
C387        O413   1.219       .  S
O388       Mn408   2.112       .  S
O388       Mn389   2.175       .  S
O388       Mn422   2.095       .  S
O388       Mn404   2.176       .  S
Mn389       O418   2.178       .  S
Mn389       O394   2.165       .  S
Mn389       O421   2.176       .  S
Mn389       O395   2.172       .  S
O390       Mn404   2.164       .  S
O391        C393   1.275       .  A
O391       Mn398   2.093       .  S
C392       C1159   1.518       .  S
C392        O418   1.266       .  A
C392        O405   1.219       .  S
C393       C1056   1.475       .  S
O394        C419   1.265       .  A
O395       Mn398   2.092       .  S
O395       Mn417   2.099       .  S
O395       Mn404   2.154       .  S
O396       Mn400   1.998       .  S
O396       Mn422   1.995       .  S
O396        C419   1.234       .  A
C397       C1096   1.443       .  S
C397        O423   1.267       .  A
C397        O399   1.260       .  A
Mn398       O411   2.086       .  S
Mn398       O413   1.960       .  S
Mn398       O405   1.961       .  S
O399       Mn422   2.027       .  S
Mn400       O416   2.066       .  S
Mn400       O410   1.972       .  S
O401        C403   1.272       .  A
O401       Mn406   2.089       .  S
C402       C1066   1.498       .  S
C402        O420   1.267       .  A
C403       C1116   1.469       .  S
C403        O416   1.268       .  A
Mn404       O420   2.171       .  S
O405       Mn408   1.944       .  S
Mn406       O424   1.949       .  S
C407       C1079   1.460       .  S
Mn408       O415   2.087       .  S
Mn408       O423   2.084       .  S
Mn408       O413   1.960       .  S
C409       C1146   1.475       .  S
C409        O415   1.272       .  A
C409        O425   1.268       .  A
O410       Mn422   1.972       .  S
O410        C412   1.217       .  S
C412       C1086   1.507       .  S
O414       Mn417   2.056       .  S
Mn417       O424   1.952       .  S
C419       C1139   1.490       .  S
O421        C426   1.265       .  A
Mn422       O425   2.072       .  S
O424        C426   1.213       .  S
C426       C1126   1.508       .  S
C427        N428   1.357       .  A
C427        N432   1.352   1_554  A
C427       C1119   1.470       .  S
N428        C429   1.350   1_554  A
C429        N430   1.350       .  A
C429        C597   1.460       .  S
N430        C431   1.360       .  A
C431        N432   1.352       .  A
C431       C1046   1.470       .  S
C433        N434   1.362   1_556  A
C433        N438   1.366       .  A
C433       C1036   1.495       .  S
N434        C435   1.363       .  A
C435        N436   1.372       .  A
C435       C1129   1.500       .  S
N436        C437   1.369       .  A
C437        N438   1.363   1_554  A
C437        C538   1.502   1_554  S
C439        N440   1.351       .  A
C439        N444   1.358       .  A
C439       C1356   1.473       .  S
N440        C441   1.351       .  A
C441        N442   1.360       .  A
C441       C1029   1.464   1_545  S
N442        C443   1.353       .  A
C443        N444   1.350       .  A
C443        C493   1.461       .  S
C445        N446   1.365       .  A
C445        N450   1.369       .  A
C445       C1369   1.498       .  S
N446        C447   1.365       .  A
C447        N448   1.370       .  A
C447       C1016   1.501   1_545  S
N448        C449   1.367       .  A
C449        N450   1.364       .  A
C449        C583   1.504       .  S
C451        N452   1.354       .  A
C451        N456   1.354       .  A
C451       C1249   1.478   1_655  S
N452        C453   1.351       .  A
C453        N454   1.367       .  A
C453        C472   1.483       .  S
N454        C455   1.375       .  A
C455        N456   1.359       .  A
C455       C1009   1.485       .  S
C457        N458   1.356       .  A
C457        N462   1.355       .  A
C457        C996   1.482       .  S
N458        C459   1.359   1_655  A
C459        N460   1.367       .  A
C459       C1239   1.468       .  S
N460        C461   1.359   1_455  A
C461        N462   1.350       .  A
C461        C552   1.472       .  S
N463        N464   1.330       .  A
N463        N469   1.316       .  A
N463       Mn492   2.248   1_565  S
N464        C471   1.362       .  A
N465        N467   1.314       .  A
N465        N466   1.319       .  A
N465       Mn481   2.208   1_665  S
N466        C472   1.354       .  A
N467        N468   1.329       .  A
N467       Mn492   2.220   1_565  S
N468        C472   1.356       .  A
N469        N470   1.330       .  A
N469       Mn481   2.249   1_665  S
N470        C471   1.360       .  A
N473        N479   1.319       .  A
N473        N474   1.319       .  A
N473       Mn503   2.209       .  S
N474        C482   1.351       .  A
N475        N476   1.318       .  A
N475        N477   1.318       .  A
N475       Mn481   2.187       .  S
N476        C483   1.348       .  A
N477        N478   1.320       .  A
N477       Mn503   2.200       .  S
N478        C483   1.349       .  A
N479        N480   1.327       .  A
N479       Mn481   2.229       .  S
N480        C482   1.356       .  A
Mn481      Cl505   2.550   1_455  S
N484        N485   1.320       .  A
N484        N490   1.319       .  A
N484       Mn492   2.198       .  S
N485        C493   1.347       .  A
N486        N488   1.317       .  A
N486        N487   1.325       .  A
N486       Mn504   2.209       .  S
N487        C494   1.352       .  A
N488        N489   1.317       .  A
N488       Mn492   2.205       .  S
N489        C494   1.352       .  A
N490        N491   1.320       .  A
N490       Mn504   2.199       .  S
N491        C493   1.350       .  A
Mn492      Cl505   2.550       .  S
N495        N496   1.331   1_655  A
N495        N501   1.315       .  A
N495       Mn503   2.229   1_655  S
N496        C506   1.358   1_455  A
N497        N498   1.327       .  A
N497        N499   1.314       .  A
N497       Mn504   2.220       .  S
N498        C507   1.355       .  A
N499        N500   1.327   1_655  A
N499       Mn503   2.243   1_655  S
N500        C507   1.361   1_455  A
N501        N502   1.319       .  A
N501       Mn504   2.214       .  S
N502        C506   1.354       .  A
Mn503      Cl505   2.549   1_455  S
Mn504      Cl505   2.551       .  S
N508        N509   1.324       .  A
N508        N514   1.319       .  A
N508       Mn537   2.210       .  S
N509        C516   1.351       .  A
N510        N512   1.319       .  A
N510        N511   1.321       .  A
N510       Mn526   2.205   1_655  S
N511        C517   1.350       .  A
N512        N513   1.318       .  A
N512       Mn537   2.190       .  S
N513        C517   1.348       .  A
N514        N515   1.319       .  A
N514       Mn526   2.216   1_655  S
N515        C516   1.354       .  A
N518        N524   1.315   1_556  A
N518        N519   1.320       .  A
N518       Mn548   2.217       .  S
N519        C527   1.355   1_556  A
N520        N521   1.330       .  A
N520        N522   1.316   1_554  A
N520       Mn526   2.251       .  S
N521        C528   1.362   1_554  A
N522        N523   1.328       .  A
N522       Mn548   2.232       .  S
N523        C528   1.357       .  A
N524        N525   1.331       .  A
N524       Mn526   2.229       .  S
N525        C527   1.357       .  A
Mn526      Cl550   2.552   1_454  S
N529        N530   1.328       .  A
N529        N535   1.315   1_554  A
N529       Mn537   2.232       .  S
N530        C538   1.358   1_554  A
N531        N533   1.314   1_556  A
N531        N532   1.328       .  A
N531       Mn549   2.211       .  S
N532        C539   1.355       .  A
N533        N534   1.319       .  A
N533       Mn537   2.211       .  S
N534        C539   1.355   1_554  A
N535        N536   1.328       .  A
N535       Mn549   2.243       .  S
N536        C538   1.361       .  A
Mn537      Cl550   2.550   1_554  S
N540        N541   1.320   1_655  A
N540        N546   1.319       .  A
N540       Mn548   2.200   1_655  S
N541        C551   1.350   1_455  A
N542        N543   1.317       .  A
N542        N544   1.318       .  A
N542       Mn549   2.201       .  S
N543        C552   1.350       .  A
N544        N545   1.327   1_655  A
N544       Mn548   2.220   1_655  S
N545        C552   1.355   1_455  A
N546        N547   1.321       .  A
N546       Mn549   2.201       .  S
N547        C551   1.348       .  A
Mn548      Cl550   2.552   1_455  S
Mn549      Cl550   2.551       .  S
N553        N554   1.321       .  A
N553        N559   1.319   1_556  A
N553       Mn582   2.207       .  S
N554        C561   1.349   1_556  A
N555        N557   1.317   1_554  A
N555        N556   1.325       .  A
N555       Mn571   2.212       .  S
N556        C562   1.352       .  A
N557        N558   1.318       .  A
N557       Mn582   2.206       .  S
N558        C562   1.352   1_556  A
N559        N560   1.321       .  A
N559       Mn571   2.202       .  S
N560        C561   1.351       .  A
N563        N569   1.315       .  A
N563        N564   1.329       .  A
N563       Mn593   2.221       .  S
N564        C572   1.355       .  A
N565        N566   1.327       .  A
N565        N567   1.315       .  A
N565       Mn571   2.229       .  S
N566        C573   1.357       .  A
N567        N568   1.330       .  A
N567       Mn593   2.249       .  S
N568        C573   1.362       .  A
N569        N570   1.320       .  A
N569       Mn571   2.216       .  S
N570        C572   1.355       .  A
Mn571      Cl595   2.549   1_554  S
N574        N575   1.330       .  A
N574        N580   1.316       .  A
N574       Mn582   2.248       .  S
N575        C583   1.362       .  A
N576        N578   1.315       .  A
N576        N577   1.320       .  A
N576       Mn594   2.212       .  S
N577        C584   1.354       .  A
N578        N579   1.328       .  A
N578       Mn582   2.217       .  S
N579        C584   1.355       .  A
N580        N581   1.327       .  A
N580       Mn594   2.232       .  S
N581        C583   1.356       .  A
Mn582      Cl595   2.552       .  S
N585        N586   1.316       .  A
N585        N591   1.318   1_554  A
N585       Mn593   2.201   1_565  S
N586        C596   1.351   1_554  A
N587        N588   1.321       .  A
N587        N589   1.318   1_556  A
N587       Mn594   2.197   1_565  S
N588        C597   1.350       .  A
N589        N590   1.319       .  A
N589       Mn593   2.200   1_565  S
N590        C597   1.348   1_554  A
N591        N592   1.327       .  A
N591       Mn594   2.222   1_565  S
N592        C596   1.355       .  A
Mn593      Cl595   2.551   1_554  S
Mn594      Cl595   2.550       .  S
O598        C625   1.270       .  A
O598       Mn624   2.092       .  S
C599       C1049   1.468       .  S
C599        O632   1.269       .  A
C599        O629   1.259       .  A
O600       Mn607   2.163       .  S
O600       Mn618   2.090       .  S
O600       Mn622   2.164       .  S
O600       Mn624   2.089       .  S
O601        C611   1.271       .  A
O601       Mn635   2.088       .  S
O602        C625   1.266       .  A
O602       Mn618   2.066       .  S
O603        C630   1.266       .  A
O603       Mn622   2.181       .  S
O604       Mn635   1.960       .  S
O604       Mn624   1.967       .  S
O604        C620   1.219       .  S
C605        C956   1.488       .  S
C605        O608   1.266       .  A
C605        O631   1.232       .  A
O606       Mn626   2.088       .  S
O606       Mn607   2.168       .  S
O606       Mn640   2.081       .  S
O606       Mn622   2.171       .  S
Mn607       O636   2.175       .  S
Mn607       O612   2.165       .  S
Mn607       O639   2.167       .  S
Mn607       O613   2.169       .  S
O608       Mn622   2.169       .  S
O609        C611   1.268       .  A
O609       Mn616   2.073       .  S
C610       C1019   1.511       .  S
C610        O636   1.264       .  A
C610        O623   1.215       .  S
C611        C966   1.474       .  S
O612        C637   1.265       .  A
O613       Mn616   2.086       .  S
O613       Mn635   2.092       .  S
O613       Mn622   2.170       .  S
O614       Mn618   1.951       .  S
O614       Mn640   1.939       .  S
O614        C637   1.212       .  S
C615        C986   1.473       .  S
C615        O641   1.268       .  A
C615        O617   1.273       .  A
Mn616       O629   2.052       .  S
Mn616       O631   1.995       .  S
Mn616       O623   1.983       .  S
O617       Mn640   2.096       .  S
Mn618       O634   2.092       .  S
Mn618       O628   1.957       .  S
O619        C621   1.271       .  A
O619       Mn624   2.086       .  S
C620        C936   1.508       .  S
C620        O638   1.267       .  A
C621        C999   1.481       .  S
C621        O634   1.273       .  A
Mn622       O638   2.170       .  S
O623       Mn626   1.970       .  S
Mn624       O642   1.946       .  S
C625        C946   1.471       .  S
Mn626       O633   2.086       .  S
Mn626       O641   2.068       .  S
Mn626       O631   1.993       .  S
C627       C1026   1.458       .  S
C627        O633   1.270       .  A
C627        O643   1.264       .  A
O628       Mn640   1.952       .  S
O628        C630   1.213       .  S
C630        C976   1.513       .  S
O632       Mn635   2.102       .  S
Mn635       O642   1.948       .  S
C637       C1006   1.493       .  S
O639        C644   1.266       .  A
Mn640       O643   2.061       .  S
O642        C644   1.214       .  S
C644       C1039   1.500       .  S
C645        N646   1.367       .  A
C645        N650   1.358       .  A
C645       C1219   1.468       .  S
N646        C647   1.361       .  A
C647        N648   1.352       .  A
C647        C862   1.473       .  S
N648        C649   1.355       .  A
C649        N650   1.355       .  A
C649       C1569   1.480       .  S
C651        N652   1.354       .  A
C651        N656   1.354       .  A
C651       C1229   1.475       .  S
N652        C653   1.353       .  A
C653        N654   1.368       .  A
C653        C796   1.485       .  S
N654        C655   1.374       .  A
C655        N656   1.358       .  A
C655       C1556   1.488       .  S
C657        N658   1.356       .  A
C657        N662   1.354       .  A
C657       C1439   1.484       .  S
N658        C659   1.360       .  A
C659        N660   1.374       .  A
C659       C1349   1.487       .  S
N660        C661   1.367       .  A
C661        N662   1.352       .  A
C661        C762   1.485       .  S
C663        N664   1.352       .  A
C663        N668   1.357       .  A
C663       C1339   1.477       .  S
N664        C665   1.355       .  A
C665        N666   1.369       .  A
C665       C1446   1.474       .  S
N666        C667   1.364       .  A
C667        N668   1.355       .  A
C667        C874   1.479       .  S
C669        N670   1.350       .  A
C669        N674   1.354       .  A
C669       C1099   1.454       .  S
N670        C671   1.352       .  A
C671        N672   1.360       .  A
C671        C989   1.473       .  S
N672        C673   1.352       .  A
C673        N674   1.348       .  A
C673        C873   1.456       .  S
C675        N676   1.366       .  A
C675        N680   1.372       .  A
C675        C979   1.503       .  S
N676        C677   1.365       .  A
C677        N678   1.367       .  A
C677       C1109   1.501       .  S
N678        C679   1.363       .  A
C679        N680   1.369       .  A
C679        C797   1.505       .  S
C681        N682   1.359       .  A
C681        N686   1.351       .  A
C681       C1686   1.472       .  S
N682        C683   1.353       .  A
C683        N684   1.351       .  A
C683        C807   1.462       .  S
N684        C685   1.359       .  A
C685        N686   1.351       .  A
C685       C1319   1.468       .  S
C687        N688   1.369       .  A
C687        N692   1.367       .  A
C687       C1329   1.507       .  S
N688        C689   1.366       .  A
C689        N690   1.368       .  A
C689        C851   1.508       .  S
N690        C691   1.371       .  A
C691        N692   1.368       .  A
C691       C1679   1.507       .  S
C693        N694   1.368       .  A
C693        N698   1.370       .  A
C693       C1539   1.510       .  S
N694        C695   1.370       .  A
C695        N696   1.371       .  A
C695       C1089   1.513       .  S
N696        C697   1.367       .  A
C697        N698   1.365       .  A
C697        C887   1.507       .  S
C699        N700   1.350       .  A
C699        N704   1.358       .  A
C699       C1549   1.469       .  S
N700        C701   1.348       .  A
C701        N702   1.357       .  A
C701       C1076   1.467       .  S
N702        C703   1.354       .  A
C703        N704   1.352       .  A
C703        C841   1.458       .  S
C705        N706   1.356       .  A
C705        N710   1.369       .  A
C705       C1429   1.475       .  S
N706        C707   1.353       .  A
C707        N708   1.353       .  A
C707       C1059   1.474       .  S
N708        C709   1.351       .  A
C709        N710   1.362       .  A
C709        C783   1.472       .  S
C711        N712   1.360       .  A
C711        N716   1.378       .  A
C711       C1069   1.493       .  S
N712        C713   1.353       .  A
C713        N714   1.352       .  A
C713       C1416   1.480       .  S
N714        C715   1.348       .  A
C715        N716   1.371       .  A
C715        C829   1.488       .  S
C717        N718   1.351       .  A
C717        N722   1.355       .  A
C717        C969   1.478       .  S
N718        C719   1.348       .  A
C719        N720   1.358       .  A
C719        C842   1.464       .  S
N720        C721   1.366       .  A
C721        N722   1.359       .  A
C721       C1199   1.467       .  S
C723        N724   1.352       .  A
C723        N728   1.356       .  A
C723       C1206   1.481       .  S
N724        C725   1.356       .  A
C725        N726   1.372       .  A
C725        C959   1.473       .  S
N726        C727   1.365       .  A
C727        N728   1.353       .  A
C727        C852   1.484       .  S
C729        N730   1.352       .  A
C729        N734   1.357       .  A
C729        C949   1.473       .  S
N730        C731   1.351       .  A
C731        N732   1.357       .  A
C731       C1299   1.454       .  S
N732        C733   1.352       .  A
C733        N734   1.351       .  A
C733        C772   1.458       .  S
C735        N736   1.368       .  A
C735        N740   1.368       .  A
C735        C939   1.507       .  S
N736        C737   1.364       .  A
C737        N738   1.367       .  A
C737        C828   1.505       .  S
N738        C739   1.371       .  A
C739        N740   1.368       .  A
C739       C1309   1.504       .  S
C741        N742   1.358       .  A
C741        N746   1.376       .  A
C741       C1659   1.480       .  S
N742        C743   1.353       .  A
C743        N744   1.352       .  A
C743       C1189   1.479       .  S
N744        C745   1.349       .  A
C745        N746   1.369       .  A
C745        C817   1.484       .  S
C747        N748   1.370       .  A
C747        N752   1.360       .  A
C747       C1179   1.476       .  S
N748        C749   1.361       .  A
C749        N750   1.347       .  A
C749        C773   1.470       .  S
N750        C751   1.350       .  A
C751        N752   1.356       .  A
C751       C1669   1.479       .  S
N753        N754   1.329       .  A
N753        N759   1.315       .  A
N753       Mn782   2.237   1_455  S
N754        C761   1.358       .  A
N755        N757   1.314       .  A
N755        N756   1.330       .  A
N755       Mn771   2.223       .  S
N756        C762   1.356       .  A
N757        N758   1.319       .  A
N757       Mn782   2.208       .  S
N758        C762   1.354       .  A
N759        N760   1.331       .  A
N759       Mn771   2.256   1_455  S
N760        C761   1.364       .  A
N763        N769   1.319       .  A
N763        N764   1.319       .  A
N763       Mn793   2.195       .  S
N764        C772   1.349       .  A
N765        N766   1.315       .  A
N765        N767   1.319       .  A
N765       Mn771   2.204   1_455  S
N766        C773   1.351       .  A
N767        N768   1.327       .  A
N767       Mn793   2.218   1_455  S
N768        C773   1.354       .  A
N769        N770   1.320       .  A
N769       Mn771   2.199       .  S
N770        C772   1.348       .  A
Mn771      Cl795   2.550       .  S
N774        N775   1.326       .  A
N774        N780   1.318       .  A
N774       Mn782   2.216       .  S
N775        C783   1.354       .  A
N776        N778   1.319       .  A
N776        N777   1.321       .  A
N776       Mn794   2.201   1_455  S
N777        C784   1.349       .  A
N778        N779   1.317       .  A
N778       Mn782   2.187   1_455  S
N779        C784   1.347       .  A
N780        N781   1.317       .  A
N780       Mn794   2.207       .  S
N781        C783   1.352       .  A
Mn782      Cl795   2.552       .  S
N785        N786   1.320       .  A
N785        N791   1.314       .  A
N785       Mn793   2.213   1_455  S
N786        C796   1.355       .  A
N787        N788   1.328       .  A
N787        N789   1.315       .  A
N787       Mn794   2.246       .  S
N788        C797   1.361       .  A
N789        N790   1.329       .  A
N789       Mn793   2.236       .  S
N790        C797   1.358       .  A
N791        N792   1.329       .  A
N791       Mn794   2.219   1_455  S
N792        C796   1.356       .  A
Mn793      Cl795   2.554       .  S
Mn794      Cl795   2.550       .  S
N798        N799   1.327       .  A
N798        N804   1.318       .  A
N798       Mn827   2.229   1_554  S
N799        C806   1.357       .  A
N800        N802   1.320       .  A
N800        N801   1.319       .  A
N800       Mn816   2.198   1_556  S
N801        C807   1.347       .  A
N802        N803   1.322       .  A
N802       Mn827   2.209       .  S
N803        C807   1.351       .  A
N804        N805   1.315       .  A
N804       Mn816   2.185       .  S
N805        C806   1.347       .  A
N808        N814   1.314       .  A
N808        N809   1.319       .  A
N808       Mn838   2.218       .  S
N809        C817   1.356       .  A
N810        N811   1.329       .  A
N810        N812   1.315       .  A
N810       Mn816   2.247       .  S
N811        C818   1.361       .  A
N812        N813   1.329       .  A
N812       Mn838   2.235   1_554  S
N813        C818   1.359       .  A
N814        N815   1.330       .  A
N814       Mn816   2.210   1_556  S
N815        C817   1.355       .  A
Mn816      Cl840   2.553   1_554  S
N819        N820   1.330       .  A
N819        N825   1.315       .  A
N819       Mn827   2.244       .  S
N820        C828   1.360       .  A
N821        N823   1.315       .  A
N821        N822   1.329       .  A
N821       Mn839   2.212   1_554  S
N822        C829   1.354       .  A
N823        N824   1.321       .  A
N823       Mn827   2.230   1_554  S
N824        C829   1.358       .  A
N825        N826   1.328       .  A
N825       Mn839   2.235       .  S
N826        C828   1.359       .  A
Mn827      Cl840   2.548       .  S
N830        N831   1.321       .  A
N830        N836   1.318       .  A
N830       Mn838   2.202   1_554  S
N831        C841   1.351       .  A
N832        N833   1.314       .  A
N832        N834   1.318       .  A
N832       Mn839   2.190       .  S
N833        C842   1.349       .  A
N834        N835   1.326       .  A
N834       Mn838   2.217       .  S
N835        C842   1.354       .  A
N836        N837   1.318       .  A
N836       Mn839   2.187   1_554  S
N837        C841   1.346       .  A
Mn838      Cl840   2.548       .  S
Mn839      Cl840   2.553       .  S
N843        N844   1.329       .  A
N843        N849   1.316       .  A
N843       Mn872   2.242       .  S
N844        C851   1.360       .  A
N845        N847   1.314       .  A
N845        N846   1.319   1_545  A
N845       Mn861   2.207       .  S
N846        C852   1.353       .  A
N847        N848   1.329   1_545  A
N847       Mn872   2.226       .  S
N848        C852   1.357       .  A
N849        N850   1.330       .  A
N849       Mn861   2.247       .  S
N850        C851   1.360       .  A
N853        N859   1.318       .  A
N853        N854   1.318   1_545  A
N853       Mn883   2.206       .  S
N854        C862   1.352       .  A
N855        N856   1.319       .  A
N855        N857   1.319       .  A
N855       Mn861   2.193       .  S
N856        C863   1.349       .  A
N857        N858   1.317       .  A
N857       Mn883   2.187       .  S
N858        C863   1.345       .  A
N859        N860   1.326   1_545  A
N859       Mn861   2.222       .  S
N860        C862   1.354       .  A
Mn861      Cl885   2.551       .  S
N864        N865   1.320   1_545  A
N864        N870   1.319       .  A
N864       Mn872   2.198       .  S
N865        C873   1.348       .  A
N866        N868   1.319       .  A
N866        N867   1.327       .  A
N866       Mn884   2.229       .  S
N867        C874   1.355       .  A
N868        N869   1.320       .  A
N868       Mn872   2.214       .  S
N869        C874   1.353       .  A
N870        N871   1.318   1_545  A
N870       Mn884   2.188       .  S
N871        C873   1.347       .  A
Mn872      Cl885   2.552       .  S
N875        N876   1.329       .  A
N875        N881   1.315       .  A
N875       Mn883   2.224       .  S
N876        C886   1.356       .  A
N877        N878   1.329   1_545  A
N877        N879   1.315       .  A
N877       Mn884   2.245       .  S
N878        C887   1.359       .  A
N879        N880   1.329   1_545  A
N879       Mn883   2.238       .  S
N880        C887   1.360       .  A
N881        N882   1.319       .  A
N881       Mn884   2.211       .  S
N882        C886   1.355       .  A
Mn883      Cl885   2.553       .  S
Mn884      Cl885   2.551       .  S
O888        C915   1.257       .  A
O888       Mn914   2.034       .  S
C889       C1639   1.473       .  S
C889        O922   1.267       .  A
C889        O919   1.274       .  A
O890       Mn897   2.174       .  S
O890       Mn908   2.094       .  S
O890       Mn912   2.169       .  S
O890       Mn914   2.087       .  S
O891        C901   1.269       .  A
O891       Mn925   2.075       .  S
O892        C915   1.272       .  A
O892       Mn908   2.105       .  S
O893        C920   1.267       .  A
O893       Mn912   2.168       .  S
O894       Mn925   1.981       .  S
O894       Mn914   1.983       .  S
O894        C910   1.218       .  S
C895       C1806   1.493       .  S
C895        O898   1.267       .  A
C895        O921   1.211       .  S
O896       Mn916   2.093       .  S
O896       Mn897   2.178       .  S
O896       Mn930   2.093       .  S
O896       Mn912   2.160       .  S
Mn897       O926   2.185       .  S
Mn897       O902   2.178       .  S
Mn897       O929   2.191       .  S
Mn897       O903   2.169       .  S
O898       Mn912   2.172       .  S
O899        C901   1.266       .  A
O899       Mn906   2.066       .  S
C900       C1616   1.517       .  S
C900        O926   1.267       .  A
C900        O913   1.216       .  S
C901       C1876   1.450       .  S
O902        C927   1.268       .  A
O903       Mn906   2.084       .  S
O903       Mn925   2.086       .  S
O903       Mn912   2.164       .  S
O904       Mn908   1.952       .  S
O904       Mn930   1.953       .  S
O904        C927   1.217       .  S
C905       C1789   1.483       .  S
C905        O931   1.274       .  A
C905        O907   1.275       .  A
Mn906       O919   2.101       .  S
Mn906       O921   1.934       .  S
Mn906       O913   1.963       .  S
O907       Mn930   2.100       .  S
Mn908       O924   2.091       .  S
Mn908       O918   1.968       .  S
O909        C911   1.268       .  A
O909       Mn914   2.070       .  S
C910       C1859   1.518       .  S
C910        O928   1.266       .  A
C911       C1499   1.473       .  S
C911        O924   1.272       .  A
Mn912       O928   2.176       .  S
O913       Mn916   1.970       .  S
Mn914       O932   1.983       .  S
C915       C1839   1.464       .  S
Mn916       O923   2.057       .  S
Mn916       O931   2.091       .  S
Mn916       O921   1.943       .  S
C917       C1739   1.474       .  S
C917        O923   1.259       .  A
C917        O933   1.271       .  A
O918       Mn930   1.964       .  S
O918        C920   1.220       .  S
C920       C1819   1.510       .  S
O922       Mn925   2.065       .  S
Mn925       O932   1.980       .  S
C927       C1759   1.510       .  S
O929        C934   1.268       .  A
Mn930       O933   2.108       .  S
O932        C934   1.229       .  A
C934       C1519   1.496       .  S
C935        C936   1.410       .  A
C935        C940   1.401       .  A
C935        H942   1.084       .  S
C936        C937   1.411       .  A
C937        C938   1.420       .  A
C937        F944   1.356       .  S
C938        C939   1.414       .  A
C938        H943   1.084       .  S
C939        C940   1.407       .  A
C940        F941   1.358       .  S
C945        C946   1.405       .  A
C945        C950   1.381       .  A
C945        H952   1.083       .  S
C946        C947   1.404       .  A
C947        C948   1.398       .  A
C947        F954   1.357       .  S
C948        C949   1.411       .  A
C948        H953   1.085       .  S
C949        C950   1.402       .  A
C950        F951   1.358       .  S
C955        C956   1.401       .  A
C955        C960   1.409       .  A
C955        H962   1.083       .  S
C956        C957   1.424       .  A
C957        C958   1.386       .  A
C957        F964   1.360       .  S
C958        C959   1.390       .  A
C958        H963   1.084       .  S
C959        C960   1.413       .  A
C960        F961   1.356       .  S
C965        C966   1.407       .  A
C965        C970   1.400       .  A
C965        H972   1.083       .  S
C966        C967   1.407       .  A
C967        C968   1.383       .  A
C967        F974   1.358       .  S
C968        C969   1.404       .  A
C968        H973   1.083       .  S
C969        C970   1.409       .  A
C970        F971   1.357       .  S
C975        C976   1.410       .  A
C975        C980   1.419       .  A
C975        H982   1.082       .  S
C976        C977   1.420       .  A
C977        C978   1.402       .  A
C977        F984   1.358       .  S
C978        C979   1.399       .  A
C978        H983   1.083       .  S
C979        C980   1.415       .  A
C980        F981   1.357       .  S
C985        C986   1.407       .  A
C985        C990   1.379       .  A
C985        H992   1.084       .  S
C986        C987   1.403       .  A
C987        C988   1.399       .  A
C987        F994   1.357       .  S
C988        C989   1.413       .  A
C988        H993   1.085       .  S
C989        C990   1.401       .  A
C990        F991   1.358       .  S
C995        C996   1.402       .  A
C995       C1000   1.383       .  A
C995       H1002   1.084       .  S
C996        C997   1.411       .  A
C997        C998   1.403       .  A
C997       F1004   1.357       .  S
C998        C999   1.407       .  A
C998       H1003   1.084       .  S
C999       C1000   1.410       .  A
C1000      F1001   1.357       .  S
C1005      C1006   1.413       .  A
C1005      C1010   1.392       .  A
C1005      H1012   1.080       .  S
C1006      C1007   1.404       .  A
C1007      C1008   1.411       .  A
C1007      F1014   1.357       .  S
C1008      C1009   1.415       .  A
C1008      H1013   1.082       .  S
C1009      C1010   1.397       .  A
C1010      F1011   1.358       .  S
C1015      C1016   1.413       .  A
C1015      C1020   1.418       .  A
C1015      H1022   1.083       .  S
C1016      C1017   1.404       .  A
C1017      C1018   1.402       .  A
C1017      F1024   1.358       .  S
C1018      C1019   1.414       .  A
C1018      H1023   1.084       .  S
C1019      C1020   1.412       .  A
C1020      F1021   1.356       .  S
C1025      C1026   1.399       .  A
C1025      C1030   1.398       .  A
C1025      H1032   1.082       .  S
C1026      C1027   1.407       .  A
C1027      C1028   1.380       .  A
C1027      F1034   1.359       .  S
C1028      C1029   1.398       .  A
C1028      H1033   1.082       .  S
C1029      C1030   1.411       .  A
C1030      F1031   1.357   1_565  S
C1035      C1036   1.400       .  A
C1035      C1040   1.397       .  A
C1035      H1042   1.086       .  S
C1036      C1037   1.414       .  A
C1037      C1038   1.414       .  A
C1037      F1044   1.356       .  S
C1038      C1039   1.407       .  A
C1038      H1043   1.086       .  S
C1039      C1040   1.416       .  A
C1040      F1041   1.358       .  S
C1045      C1046   1.413       .  A
C1045      C1050   1.398       .  A
C1045      H1052   1.082       .  S
C1046      C1047   1.399       .  A
C1047      C1048   1.379       .  A
C1047      F1054   1.358       .  S
C1048      C1049   1.406       .  A
C1048      H1053   1.080       .  S
C1049      C1050   1.402       .  A
C1050      F1051   1.357       .  S
C1055      C1056   1.403       .  A
C1055      C1060   1.385       .  A
C1055      H1062   1.084       .  S
C1056      C1057   1.407       .  A
C1057      C1058   1.399       .  A
C1057      F1064   1.357       .  S
C1058      C1059   1.408       .  A
C1058      H1063   1.085       .  S
C1059      C1060   1.404       .  A
C1060      F1061   1.358       .  S
C1065      C1066   1.414       .  A
C1065      C1070   1.396       .  A
C1065      H1072   1.082       .  S
C1066      C1067   1.404       .  A
C1067      C1068   1.412       .  A
C1067      F1074   1.357       .  S
C1068      C1069   1.417       .  A
C1068      H1073   1.084       .  S
C1069      C1070   1.399       .  A
C1070      F1071   1.357       .  S
C1075      C1076   1.411       .  A
C1075      C1080   1.396       .  A
C1075      H1082   1.085       .  S
C1076      C1077   1.403       .  A
C1077      C1078   1.381       .  A
C1077      F1084   1.358       .  S
C1078      C1079   1.406       .  A
C1078      H1083   1.086       .  S
C1079      C1080   1.398       .  A
C1080      F1081   1.356       .  S
C1085      C1086   1.410       .  A
C1085      C1090   1.405       .  A
C1085      H1092   1.082       .  S
C1086      C1087   1.410       .  A
C1087      C1088   1.418       .  A
C1087      F1094   1.356       .  S
C1088      C1089   1.415       .  A
C1088      H1093   1.083       .  S
C1089      C1090   1.411       .  A
C1090      F1091   1.357       .  S
C1095      C1096   1.400       .  A
C1095      C1100   1.397       .  A
C1095      H1102   1.084       .  S
C1096      C1097   1.401       .  A
C1097      C1098   1.375       .  A
C1097      F1104   1.359       .  S
C1098      C1099   1.401       .  A
C1098      H1103   1.084       .  S
C1099      C1100   1.407       .  A
C1100      F1101   1.357       .  S
C1105      C1106   1.409       .  A
C1105      C1110   1.417       .  A
C1105      H1112   1.082       .  S
C1106      C1107   1.415       .  A
C1107      C1108   1.399       .  A
C1107      F1114   1.358       .  S
C1108      C1109   1.402       .  A
C1108      H1113   1.083       .  S
C1109      C1110   1.414       .  A
C1110      F1111   1.357       .  S
C1115      C1116   1.406       .  A
C1115      C1120   1.379       .  A
C1115      H1122   1.083       .  S
C1116      C1117   1.403       .  A
C1117      C1118   1.397       .  A
C1117      F1124   1.357       .  S
C1118      C1119   1.411       .  A
C1118      H1123   1.083       .  S
C1119      C1120   1.402       .  A
C1120      F1121   1.358       .  S
C1125      C1126   1.414       .  A
C1125      C1130   1.402       .  A
C1125      H1132   1.084       .  S
C1126      C1127   1.410       .  A
C1127      C1128   1.417       .  A
C1127      F1134   1.356       .  S
C1128      C1129   1.414       .  A
C1128      H1133   1.084       .  S
C1129      C1130   1.403       .  A
C1130      F1131   1.358       .  S
C1135      C1136   1.391       .  A
C1135      C1140   1.388       .  A
C1135      H1142   1.084       .  S
C1136      C1137   1.412       .  A
C1137      C1138   1.409       .  A
C1137      F1144   1.356       .  S
C1138      C1139   1.402       .  A
C1138      H1143   1.083       .  S
C1139      C1140   1.424       .  A
C1140      F1141   1.360       .  S
C1145      C1146   1.403       .  A
C1145      C1150   1.386       .  A
C1145      H1152   1.083       .  S
C1146      C1147   1.409       .  A
C1147      C1148   1.398   1_565  A
C1147      F1154   1.358       .  S
C1148      C1149   1.406       .  A
C1148      H1153   1.084       .  S
C1149      C1150   1.405   1_545  A
C1150      F1151   1.358       .  S
C1155      C1156   1.415       .  A
C1155      C1160   1.424       .  A
C1155      H1162   1.085       .  S
C1156      C1157   1.405       .  A
C1157      C1158   1.402       .  A
C1157      F1164   1.357       .  S
C1158      C1159   1.413       .  A
C1158      H1163   1.084       .  S
C1159      C1160   1.414       .  A
C1160      F1161   1.356       .  S
C1165      C1166   1.410       .  A
C1165      C1170   1.395       .  A
C1165      H1172   1.084       .  S
C1166      C1167   1.402       .  A
C1167      C1168   1.379       .  A
C1167      F1174   1.358       .  S
C1168      C1169   1.405       .  A
C1168      H1173   1.083       .  S
C1169      C1170   1.403       .  A
C1170      F1171   1.357       .  S
C1175      C1176   1.410       .  A
C1175      C1180   1.390       .  A
C1175      H1182   1.082       .  S
C1176      C1177   1.405       .  A
C1177      C1178   1.408       .  A
C1177      F1184   1.357       .  S
C1178      C1179   1.410       .  A
C1178      H1183   1.082       .  S
C1179      C1180   1.399       .  A
C1180      F1181   1.358       .  S
C1185      C1186   1.405       .  A
C1185      C1190   1.402       .  A
C1185      H1192   1.084       .  S
C1186      C1187   1.409       .  A
C1187      C1188   1.384       .  A
C1187      F1194   1.358       .  S
C1188      C1189   1.403       .  A
C1188      H1193   1.084       .  S
C1189      C1190   1.411       .  A
C1190      F1191   1.357       .  S
C1195      C1196   1.408       .  A
C1195      C1200   1.388       .  A
C1195      H1202   1.081       .  S
C1196      C1197   1.404       .  A
C1197      C1198   1.403       .  A
C1197      F1204   1.357       .  S
C1198      C1199   1.407       .  A
C1198      H1203   1.081       .  S
C1199      C1200   1.399       .  A
C1200      F1201   1.358       .  S
C1205      C1206   1.400       .  A
C1205      C1210   1.385       .  A
C1205      H1212   1.084       .  S
C1206      C1207   1.413       .  A
C1207      C1208   1.404       .  A
C1207      F1214   1.357       .  S
C1208      C1209   1.405       .  A
C1208      H1213   1.084       .  S
C1209      C1210   1.412       .  A
C1210      F1211   1.357       .  S
C1215      C1216   1.405       .  A
C1215      C1220   1.405       .  A
C1215      H1222   1.083       .  S
C1216      C1217   1.415       .  A
C1217      C1218   1.389       .  A
C1217      F1224   1.358       .  S
C1218      C1219   1.394       .  A
C1218      H1223   1.084       .  S
C1219      C1220   1.408       .  A
C1220      F1221   1.357       .  S
C1225      C1226   1.407       .  A
C1225      C1230   1.387       .  A
C1225      H1232   1.082       .  S
C1226      C1227   1.408       .  A
C1227      C1228   1.403       .  A
C1227      F1234   1.357       .  S
C1228      C1229   1.408       .  A
C1228      H1233   1.084       .  S
C1229      C1230   1.402       .  A
C1230      F1231   1.358       .  S
C1235      C1236   1.405       .  A
C1235      C1240   1.405       .  A
C1235      H1242   1.083       .  S
C1236      C1237   1.415       .  A
C1237      C1238   1.389       .  A
C1237      F1244   1.358       .  S
C1238      C1239   1.395       .  A
C1238      H1243   1.084       .  S
C1239      C1240   1.408       .  A
C1240      F1241   1.357       .  S
C1245      C1246   1.407       .  A
C1245      C1250   1.403       .  A
C1245      H1252   1.084       .  S
C1246      C1247   1.411       .  A
C1247      C1248   1.386       .  A
C1247      F1254   1.356       .  S
C1248      C1249   1.400       .  A
C1248      H1253   1.085       .  S
C1249      C1250   1.410       .  A
C1250      F1251   1.357   1_455  S
C1255      C1256   1.409       .  A
C1255      C1260   1.403   1_545  A
C1255      H1262   1.081       .  S
C1256      C1257   1.403   1_545  A
C1257      C1258   1.387       .  A
C1257      F1264   1.358       .  S
C1258      C1259   1.406       .  A
C1258      H1263   1.076       .  S
C1259      C1260   1.408       .  A
C1260      F1261   1.357       .  S
C1265      C1266   1.393       .  A
C1265      C1270   1.387       .  A
C1265      H1272   1.084       .  S
C1266      C1267   1.407       .  A
C1267      C1268   1.404       .  A
C1267      F1274   1.357       .  S
C1268      C1269   1.405       .  A
C1268      H1273   1.083       .  S
C1269      C1270   1.415       .  A
C1270      F1271   1.358       .  S
C1275      C1276   1.410       .  A
C1275      C1280   1.407       .  A
C1275      H1282   1.082       .  S
C1276      C1277   1.398       .  A
C1277      C1278   1.389       .  A
C1277      F1284   1.358       .  S
C1278      C1279   1.410       .  A
C1278      H1283   1.082       .  S
C1279      C1280   1.405       .  A
C1280      F1281   1.357       .  S
C1285      C1286   1.409       .  A
C1285      C1290   1.400       .  A
C1285      H1292   1.082       .  S
C1286      C1287   1.402       .  A
C1287      C1288   1.387       .  A
C1287      F1294   1.358       .  S
C1288      C1289   1.408       .  A
C1288      H1293   1.079       .  S
C1289      C1290   1.406       .  A
C1290      F1291   1.357       .  S
C1295      C1296   1.399       .  A
C1295      C1300   1.396       .  A
C1295      H1302   1.083       .  S
C1296      C1297   1.402       .  A
C1297      C1298   1.381       .  A
C1297      F1304   1.359       .  S
C1298      C1299   1.399       .  A
C1298      H1303   1.083       .  S
C1299      C1300   1.406       .  A
C1300      F1301   1.357       .  S
C1305      C1306   1.413       .  A
C1305      C1310   1.402       .  A
C1305      H1312   1.084       .  S
C1306      C1307   1.412       .  A
C1307      C1308   1.420       .  A
C1307      F1314   1.356       .  S
C1308      C1309   1.414       .  A
C1308      H1313   1.083       .  S
C1309      C1310   1.404       .  A
C1310      F1311   1.357       .  S
C1315      C1316   1.407       .  A
C1315      C1320   1.380       .  A
C1315      H1322   1.080       .  S
C1316      C1317   1.401       .  A
C1317      C1318   1.396       .  A
C1317      F1324   1.357       .  S
C1318      C1319   1.412       .  A
C1318      H1323   1.082       .  S
C1319      C1320   1.400       .  A
C1320      F1321   1.359       .  S
C1325      C1326   1.412       .  A
C1325      C1330   1.402       .  A
C1325      H1332   1.086       .  S
C1326      C1327   1.412       .  A
C1327      C1328   1.420       .  A
C1327      F1334   1.356       .  S
C1328      C1329   1.415       .  A
C1328      H1333   1.085       .  S
C1329      C1330   1.406       .  A
C1330      F1331   1.357       .  S
C1335      C1336   1.407       .  A
C1335      C1340   1.389       .  A
C1335      H1342   1.062       .  S
C1336      C1337   1.406       .  A
C1337      C1338   1.401       .  A
C1337      F1344   1.358       .  S
C1338      C1339   1.410       .  A
C1338      H1343   1.078       .  S
C1339      C1340   1.402       .  A
C1340      F1341   1.358       .  S
C1345      C1346   1.414       .  A
C1345      C1350   1.393       .  A
C1345      H1352   1.082       .  S
C1346      C1347   1.405       .  A
C1347      C1348   1.412       .  A
C1347      F1354   1.356       .  S
C1348      C1349   1.415       .  A
C1348      H1353   1.083       .  S
C1349      C1350   1.398       .  A
C1350      F1351   1.358       .  S
C1355      C1356   1.398       .  A
C1355      C1360   1.379       .  A
C1355      H1362   1.085       .  S
C1356      C1357   1.414       .  A
C1357      C1358   1.398       .  A
C1357      F1364   1.358       .  S
C1358      C1359   1.402       .  A
C1358      H1363   1.085       .  S
C1359      C1360   1.411       .  A
C1360      F1361   1.357       .  S
C1365      C1366   1.409       .  A
C1365      C1370   1.418       .  A
C1365      H1372   1.082       .  S
C1366      C1367   1.418       .  A
C1367      C1368   1.397       .  A
C1367      F1374   1.358       .  S
C1368      C1369   1.399       .  A
C1368      H1373   1.083       .  S
C1369      C1370   1.415       .  A
C1370      F1371   1.357       .  S
C1375      C1376   1.396       .  A
C1375      C1380   1.381       .  A
C1375      H1382   1.082       .  S
C1376      C1377   1.414       .  A
C1377      C1378   1.402       .  A
C1377      F1384   1.358       .  S
C1378      C1379   1.402       .  A
C1378      H1383   1.082       .  S
C1379      C1380   1.412       .  A
C1380      F1381   1.358       .  S
C1385      C1386   1.401       .  A
C1385      C1390   1.403       .  A
C1385      H1392   1.083       .  S
C1386      C1387   1.415       .  A
C1387      C1388   1.418       .  A
C1387      F1394   1.357       .  S
C1388      C1389   1.409       .  A
C1388      H1393   1.082       .  S
C1389      C1390   1.418       .  A
C1390      F1391   1.358       .  S
C1395      C1396   1.389       .  A
C1395      C1400   1.387       .  A
C1395      H1402   1.083       .  S
C1396      C1397   1.413       .  A
C1397      C1398   1.411       .  A
C1397      F1404   1.356       .  S
C1398      C1399   1.402       .  A
C1398      H1403   1.083       .  S
C1399      C1400   1.426       .  A
C1400      F1401   1.359       .  S
C1405      C1406   1.408       .  A
C1405      C1410   1.401       .  A
C1405      H1412   1.080       .  S
C1406      C1407   1.405       .  A
C1407      C1408   1.385       .  A
C1407      F1414   1.358       .  S
C1408      C1409   1.403       .  A
C1408      H1413   1.074       .  S
C1409      C1410   1.409       .  A
C1410      F1411   1.358       .  S
C1415      C1416   1.402       .  A
C1415      C1420   1.382       .  A
C1415      H1422   1.084       .  S
C1416      C1417   1.412       .  A
C1417      C1418   1.404       .  A
C1417      F1424   1.357       .  S
C1418      C1419   1.406       .  A
C1418      H1423   1.084       .  S
C1419      C1420   1.410       .  A
C1420      F1421   1.358       .  S
C1425      C1426   1.409       .  A
C1425      C1430   1.390       .  A
C1425      H1432   1.081       .  S
C1426      C1427   1.403       .  A
C1427      C1428   1.406       .  A
C1427      F1434   1.357       .  S
C1428      C1429   1.411       .  A
C1428      H1433   1.081       .  S
C1429      C1430   1.398       .  A
C1430      F1431   1.358       .  S
C1435      C1436   1.406       .  A
C1435      C1440   1.387       .  A
C1435      H1442   1.081       .  S
C1436      C1437   1.408       .  A
C1437      C1438   1.405       .  A
C1437      F1444   1.357       .  S
C1438      C1439   1.410       .  A
C1438      H1443   1.083       .  S
C1439      C1440   1.407       .  A
C1440      F1441   1.358       .  S
C1445      C1446   1.394       .  A
C1445      C1450   1.391       .  A
C1445      H1452   1.084       .  S
C1446      C1447   1.411       .  A
C1447      C1448   1.406       .  A
C1447      F1454   1.357       .  S
C1448      C1449   1.403       .  A
C1448      H1453   1.083       .  S
C1449      C1450   1.416       .  A
C1450      F1451   1.358       .  S
C1455      C1456   1.401       .  A
C1455      C1460   1.384       .  A
C1455      H1462   1.084       .  S
C1456      C1457   1.413       .  A
C1457      C1458   1.405       .  A
C1457      F1464   1.357       .  S
C1458      C1459   1.405       .  A
C1458      H1463   1.084       .  S
C1459      C1460   1.411       .  A
C1460      F1461   1.358       .  S
C1465      C1466   1.403       .  A
C1465      C1470   1.404       .  A
C1465      H1472   1.083       .  S
C1466      C1467   1.416       .  A
C1467      C1468   1.389       .  A
C1467      F1474   1.358       .  S
C1468      C1469   1.394       .  A
C1468      H1473   1.084       .  S
C1469      C1470   1.410       .  A
C1470      F1471   1.357       .  S
C1475      C1476   1.406       .  A
C1475      C1480   1.404       .  A
C1475      H1482   1.084       .  S
C1476      C1477   1.411       .  A
C1477      C1478   1.384       .  A
C1477      F1484   1.358       .  S
C1478      C1479   1.401       .  A
C1478      H1483   1.084       .  S
C1479      C1480   1.412       .  A
C1480      F1481   1.357       .  S
C1485      C1486   1.409       .  A
C1485      C1490   1.406       .  A
C1485      H1492   1.082       .  S
C1486      C1487   1.399       .  A
C1487      C1488   1.391       .  A
C1487      F1494   1.358       .  S
C1488      C1489   1.409       .  A
C1488      H1493   1.082       .  S
C1489      C1490   1.406       .  A
C1490      F1491   1.357       .  S
C1495      C1496   1.401       .  A
C1495      C1500   1.384       .  A
C1495      H1502   1.084       .  S
C1496      C1497   1.410       .  A
C1497      C1498   1.398       .  A
C1497      F1504   1.357   1_455  S
C1498      C1499   1.405       .  A
C1498      H1503   1.084       .  S
C1499      C1500   1.407       .  A
C1500      F1501   1.355       .  S
C1505      C1506   1.410       .  A
C1505      C1510   1.405       .  A
C1505      H1512   1.082       .  S
C1506      C1507   1.399       .  A
C1507      C1508   1.392       .  A
C1507      F1514   1.358       .  S
C1508      C1509   1.410       .  A
C1508      H1513   1.082       .  S
C1509      C1510   1.405       .  A
C1510      F1511   1.357       .  S
C1515      C1516   1.389       .  A
C1515      C1520   1.388       .  A
C1515      H1522   1.084       .  S
C1516      C1517   1.415       .  A
C1517      C1518   1.413       .  A
C1517      F1524   1.356       .  S
C1518      C1519   1.402       .  A
C1518      H1523   1.083       .  S
C1519      C1520   1.426       .  A
C1520      F1521   1.359       .  S
C1525      C1526   1.402       .  A
C1525      C1530   1.386       .  A
C1525      H1532   1.084       .  S
C1526      C1527   1.413       .  A
C1527      C1528   1.404       .  A
C1527      F1534   1.357       .  S
C1528      C1529   1.405       .  A
C1528      H1533   1.084       .  S
C1529      C1530   1.411       .  A
C1530      F1531   1.358       .  S
C1535      C1536   1.413       .  A
C1535      C1540   1.400       .  A
C1535      H1542   1.085       .  S
C1536      C1537   1.411       .  A
C1537      C1538   1.423       .  A
C1537      F1544   1.356       .  S
C1538      C1539   1.416       .  A
C1538      H1543   1.084       .  S
C1539      C1540   1.406       .  A
C1540      F1541   1.358       .  S
C1545      C1546   1.408       .  A
C1545      C1550   1.381       .  A
C1545      H1552   1.082       .  S
C1546      C1547   1.400       .  A
C1547      C1548   1.395       .  A
C1547      F1554   1.357       .  S
C1548      C1549   1.412       .  A
C1548      H1553   1.084       .  S
C1549      C1550   1.400       .  A
C1550      F1551   1.359       .  S
C1555      C1556   1.416       .  A
C1555      C1560   1.411       .  A
C1555      H1562   1.082       .  S
C1556      C1557   1.398       .  A
C1557      C1558   1.394       .  A
C1557      F1564   1.358       .  S
C1558      C1559   1.414       .  A
C1558      H1563   1.079       .  S
C1559      C1560   1.403       .  A
C1560      F1561   1.357       .  S
C1565      C1566   1.405       .  A
C1565      C1570   1.386       .  A
C1565      H1572   1.079       .  S
C1566      C1567   1.408       .  A
C1567      C1568   1.404       .  A
C1567      F1574   1.357       .  S
C1568      C1569   1.410       .  A
C1568      H1573   1.083       .  S
C1569      C1570   1.404       .  A
C1570      F1571   1.358       .  S
C1575      C1576   1.402       .  A
C1575      C1580   1.407       .  A
C1575      H1582   1.083       .  S
C1576      C1577   1.416       .  A
C1577      C1578   1.423       .  A
C1577      F1584   1.357       .  S
C1578      C1579   1.413       .  A
C1578      H1583   1.082       .  S
C1579      C1580   1.420       .  A
C1580      F1581   1.358       .  S
C1585      C1586   1.414       .  A
C1585      C1590   1.401       .  A
C1585      H1592   1.084       .  S
C1586      C1587   1.397       .  A
C1587      C1588   1.374       .  A
C1587      F1594   1.358       .  S
C1588      C1589   1.407       .  A
C1588      H1593   1.083       .  S
C1589      C1590   1.403       .  A
C1590      F1591   1.358       .  S
C1595      C1596   1.389       .  A
C1595      C1600   1.389       .  A
C1595      H1602   1.083       .  S
C1596      C1597   1.416       .  A
C1597      C1598   1.412       .  A
C1597      F1604   1.356       .  S
C1598      C1599   1.402       .  A
C1598      H1603   1.082       .  S
C1599      C1600   1.427       .  A
C1600      F1601   1.359       .  S
C1605      C1606   1.406       .  A
C1605      C1610   1.399       .  A
C1605      H1612   1.084       .  S
C1606      C1607   1.408       .  A
C1607      C1608   1.385       .  A
C1607      F1614   1.357       .  S
C1608      C1609   1.403       .  A
C1608      H1613   1.084       .  S
C1609      C1610   1.410       .  A
C1610      F1611   1.357       .  S
C1615      C1616   1.415       .  A
C1615      C1620   1.405       .  A
C1615      H1622   1.083       .  S
C1616      C1617   1.412       .  A
C1617      C1618   1.421       .  A
C1617      F1624   1.356       .  S
C1618      C1619   1.415       .  A
C1618      H1623   1.083       .  S
C1619      C1620   1.404       .  A
C1620      F1621   1.358       .  S
C1625      C1626   1.410       .  A
C1625      C1630   1.417       .  A
C1625      H1632   1.082       .  S
C1626      C1627   1.419       .  A
C1627      C1628   1.401       .  A
C1627      F1634   1.358       .  S
C1628      C1629   1.400       .  A
C1628      H1633   1.083       .  S
C1629      C1630   1.412       .  A
C1630      F1631   1.356       .  S
C1635      C1636   1.413       .  A
C1635      C1640   1.400       .  A
C1635      H1642   1.083       .  S
C1636      C1637   1.401       .  A
C1637      C1638   1.378       .  A
C1637      F1644   1.358       .  S
C1638      C1639   1.408       .  A
C1638      H1643   1.083       .  S
C1639      C1640   1.402       .  A
C1640      F1641   1.357       .  S
C1645      C1646   1.406       .  A
C1645      C1650   1.381       .  A
C1645      H1652   1.083       .  S
C1646      C1647   1.402       .  A
C1647      C1648   1.395       .  A
C1647      F1654   1.357       .  S
C1648      C1649   1.410       .  A
C1648      H1653   1.084   1_565  S
C1649      C1650   1.402       .  A
C1650      F1651   1.358       .  S
C1655      C1656   1.419       .  A
C1655      C1660   1.389       .  A
C1655      H1662   1.082       .  S
C1656      C1657   1.402       .  A
C1657      C1658   1.413       .  A
C1657      F1664   1.356       .  S
C1658      C1659   1.415       .  A
C1658      H1663   1.082       .  S
C1659      C1660   1.394       .  A
C1660      F1661   1.359       .  S
C1665      C1666   1.407       .  A
C1665      C1670   1.400       .  A
C1665      H1672   1.084       .  S
C1666      C1667   1.406       .  A
C1667      C1668   1.384       .  A
C1667      F1674   1.358       .  S
C1668      C1669   1.406       .  A
C1668      H1673   1.083       .  S
C1669      C1670   1.408       .  A
C1670      F1671   1.357       .  S
C1675      C1676   1.413       .  A
C1675      C1680   1.404       .  A
C1675      H1682   1.085       .  S
C1676      C1677   1.412       .  A
C1677      C1678   1.420       .  A
C1677      F1684   1.356       .  S
C1678      C1679   1.414       .  A
C1678      H1683   1.084       .  S
C1679      C1680   1.405       .  A
C1680      F1681   1.357       .  S
C1685      C1686   1.412       .  A
C1685      C1690   1.397       .  A
C1685      H1692   1.084       .  S
C1686      C1687   1.402       .  A
C1687      C1688   1.380       .  A
C1687      F1694   1.357       .  S
C1688      C1689   1.406       .  A
C1688      H1693   1.084       .  S
C1689      C1690   1.403       .  A
C1690      F1691   1.358       .  S
C1695      C1696   1.416       .  A
C1695      C1700   1.388       .  A
C1695      H1702   1.079       .  S
C1696      C1697   1.399       .  A
C1697      C1698   1.410       .  A
C1697      F1704   1.356       .  S
C1698      C1699   1.416       .  A
C1698      H1703   1.081       .  S
C1699      C1700   1.397       .  A
C1700      F1701   1.358       .  S
C1705      C1706   1.405       .  A
C1705      C1710   1.386       .  A
C1705      H1712   1.083       .  S
C1706      C1707   1.408       .  A
C1707      C1708   1.403       .  A
C1707      F1714   1.357       .  S
C1708      C1709   1.410       .  A
C1708      H1713   1.085       .  S
C1709      C1710   1.402       .  A
C1710      F1711   1.358       .  S
C1715      C1716   1.409       .  A
C1715      C1720   1.395       .  A
C1715      H1722   1.084       .  S
C1716      C1717   1.411       .  A
C1717      C1718   1.416       .  A
C1717      F1724   1.356       .  S
C1718      C1719   1.411       .  A
C1718      H1723   1.084       .  S
C1719      C1720   1.404       .  A
C1720      F1721   1.358       .  S
C1725      C1726   1.400       .  A
C1725      C1730   1.396       .  A
C1725      H1732   1.085       .  S
C1726      C1727   1.401       .  A
C1727      C1728   1.378       .  A
C1727      F1734   1.359       .  S
C1728      C1729   1.400       .  A
C1728      H1733   1.085       .  S
C1729      C1730   1.407       .  A
C1730      F1731   1.357       .  S
C1735      C1736   1.397       .  A
C1735      C1740   1.381       .  A
C1735      H1742   1.085       .  S
C1736      C1737   1.413       .  A
C1737      C1738   1.400       .  A
C1737      F1744   1.358       .  S
C1738      C1739   1.402       .  A
C1738      H1743   1.085       .  S
C1739      C1740   1.412       .  A
C1740      F1741   1.358       .  S
C1745      C1746   1.399       .  A
C1745      C1750   1.382       .  A
C1745      H1752   1.082       .  S
C1746      C1747   1.410       .  A
C1747      C1748   1.399       .  A
C1747      F1754   1.357       .  S
C1748      C1749   1.400       .  A
C1748      H1753   1.082       .  S
C1749      C1750   1.403       .  A
C1750      F1751   1.359       .  S
C1755      C1756   1.413       .  A
C1755      C1760   1.419       .  A
C1755      H1762   1.084       .  S
C1756      C1757   1.402       .  A
C1757      C1758   1.399       .  A
C1757      F1764   1.358       .  S
C1758      C1759   1.414       .  A
C1758      H1763   1.084       .  S
C1759      C1760   1.412       .  A
C1760      F1761   1.356       .  S
C1765      C1766   1.415       .  A
C1765      C1770   1.416       .  A
C1765      H1772   1.083       .  S
C1766      C1767   1.410       .  A
C1767      C1768   1.407       .  A
C1767      F1774   1.357       .  S
C1768      C1769   1.411       .  A
C1768      H1773   1.083       .  S
C1769      C1770   1.409       .  A
C1770      F1771   1.357       .  S
C1775      C1776   1.409       .  A
C1775      C1780   1.406       .  A
C1775      H1782   1.081       .  S
C1776      C1777   1.400       .  A
C1777      C1778   1.388       .  A
C1777      F1784   1.358       .  S
C1778      C1779   1.407       .  A
C1778      H1783   1.081       .  S
C1779      C1780   1.405       .  A
C1780      F1781   1.357       .  S
C1785      C1786   1.408       .  A
C1785      C1790   1.401       .  A
C1785      H1792   1.082       .  S
C1786      C1787   1.407       .  A
C1787      C1788   1.392       .  A
C1787      F1794   1.359       .  S
C1788      C1789   1.406       .  A
C1788      H1793   1.079       .  S
C1789      C1790   1.408       .  A
C1790      F1791   1.357       .  S
C1795      C1796   1.401       .  A
C1795      C1800   1.386       .  A
C1795      H1802   1.084       .  S
C1796      C1797   1.412       .  A
C1797      C1798   1.404       .  A
C1797      F1804   1.357       .  S
C1798      C1799   1.406       .  A
C1798      H1803   1.084       .  S
C1799      C1800   1.411       .  A
C1800      F1801   1.357       .  S
C1805      C1806   1.414       .  A
C1805      C1810   1.393       .  A
C1805      H1812   1.081       .  S
C1806      C1807   1.403       .  A
C1807      C1808   1.411       .  A
C1807      F1814   1.357       .  S
C1808      C1809   1.415       .  A
C1808      H1813   1.083       .  S
C1809      C1810   1.398       .  A
C1810      F1811   1.358       .  S
C1815      C1816   1.413       .  A
C1815      C1820   1.419       .  A
C1815      H1822   1.084       .  S
C1816      C1817   1.405       .  A
C1817      C1818   1.401       .  A
C1817      F1824   1.358       .  S
C1818      C1819   1.412       .  A
C1818      H1823   1.084       .  S
C1819      C1820   1.412       .  A
C1820      F1821   1.356       .  S
C1825      C1826   1.402       .  A
C1825      C1830   1.406       .  A
C1825      H1832   1.083       .  S
C1826      C1827   1.415       .  A
C1827      C1828   1.421       .  A
C1827      F1834   1.357       .  S
C1828      C1829   1.411       .  A
C1828      H1833   1.082       .  S
C1829      C1830   1.419       .  A
C1830      F1831   1.358       .  S
C1835      C1836   1.398       .  A
C1835      C1840   1.377       .  A
C1835      H1842   1.084       .  S
C1836      C1837   1.411       .  A
C1837      C1838   1.397       .  A
C1837      F1844   1.357       .  S
C1838      C1839   1.400       .  A
C1838      H1843   1.084       .  S
C1839      C1840   1.412       .  A
C1840      F1841   1.359       .  S
C1845      C1846   1.398       .  A
C1845      C1850   1.381       .  A
C1845      H1852   1.082       .  S
C1846      C1847   1.408       .  A
C1847      C1848   1.393       .  A
C1847      F1854   1.357       .  S
C1848      C1849   1.397       .  A
C1848      H1853   1.082       .  S
C1849      C1850   1.405       .  A
C1850      F1851   1.360       .  S
C1855      C1856   1.405       .  A
C1855      C1860   1.409       .  A
C1855      H1862   1.083       .  S
C1856      C1857   1.417       .  A
C1857      C1858   1.420       .  A
C1857      F1864   1.357       .  S
C1858      C1859   1.410       .  A
C1858      H1863   1.082       .  S
C1859      C1860   1.417       .  A
C1860      F1861   1.357       .  S
C1865      C1866   1.400       .  A
C1865      C1870   1.401       .  A
C1865      H1872   1.082       .  S
C1866      C1867   1.415       .  A
C1867      C1868   1.420       .  A
C1867      F1874   1.357       .  S
C1868      C1869   1.410       .  A
C1868      H1873   1.082       .  S
C1869      C1870   1.419       .  A
C1870      F1871   1.358       .  S
C1875      C1876   1.402       .  A
C1875      C1880   1.379       .  A
C1875      H1882   1.084       .  S
C1876      C1877   1.399       .  A
C1877      C1878   1.396       .  A
C1877      F1884   1.357       .  S
C1878      C1879   1.408       .  A
C1878      H1883   1.083       .  S
C1879      C1880   1.404       .  A
C1880      F1881   1.358       .  S
C1885      C1886   1.410       .  A
C1885      C1890   1.393       .  A
C1885      H1892   1.082       .  S
C1886      C1887   1.401       .  A
C1887      C1888   1.382       .  A
C1887      F1894   1.359       .  S
C1888      C1889   1.406       .  A
C1888      H1893   1.078       .  S
C1889      C1890   1.402       .  A
C1890      F1891   1.357       .  S
