geometry optimzed in LAMMPS
_audit_creation_date              2020-12-01 
_audit_creation_method            'lammps2cif' 
_symmetry_space_group_name_H-M    'P1' 
_symmetry_Int_Tables_number       1 
_symmetry_cell_setting            triclinic 
loop_ 
_symmetry_equiv_pos_as_xyz 
  x,y,z 
_cell_length_a                    34.10504089 
_cell_length_b                    34.99991160857133 
_cell_length_c                    35.11873333757293 
_cell_angle_alpha                 89.21989905114016 
_cell_angle_beta                  90.19895610877705 
_cell_angle_gamma                 90.04236700028193 
loop_ 
_atom_site_label 
_atom_site_type_symbol 
_atom_site_fract_x 
_atom_site_fract_y 
_atom_site_fract_z 
_atom_site_charge 
C1          C  0.24839119  0.20052966  0.72145068     0.86100
C2          C  0.28511648  0.20312965  0.74675315    -0.54200
C3          C  0.28631252  0.23452519  0.76959233     0.09000
C4          C  0.25026045  0.26077285  0.76470381     0.19900
C5          C  0.21434057  0.20253732  0.75002153    -0.54900
C6          C  0.21517626  0.23407760  0.77261427     0.09100
C7          C  0.24697415  0.23833950  0.69943352    -0.54400
C8          C  0.24797446  0.26971188  0.72178921     0.09700
H9          H  0.30797747  0.18159074  0.74678645     0.14200
H10         H  0.25075234  0.28648499  0.78283082    -0.00100
H11         H  0.19195936  0.18073961  0.75310850     0.14500
H12         H  0.24542129  0.24021361  0.66854004     0.14300
N13         N  0.27119862  0.03100641  0.57987323    -0.06600
N14         N  0.28396579  0.05935904  0.60097395    -0.58700
N15         N  0.22935834  0.44436648  0.58679787    -0.06200
N16         N  0.21577863  0.41807546  0.61050085    -0.60800
N17         N  0.26792247  0.44541357  0.58791052    -0.05800
N18         N  0.28136139  0.41960468  0.61247884    -0.58600
N19         N  0.23275502  0.02870447  0.58136751    -0.05500
N20         N  0.21848622  0.05556834  0.60332512    -0.61200
C21         C  0.25071589  0.07449374  0.61529030     0.95600
C22         C  0.24845228  0.40276713  0.62626904     0.95400
N23         N  0.16291226  0.44559573  0.48473379    -0.06700
N24         N  0.14248937  0.41732248  0.47022680    -0.59200
N25         N  0.16845777  0.03069424  0.52019945    -0.04900
N26         N  0.15064124  0.05943429  0.53658425    -0.60500
N27         N  0.16817126  0.03488626  0.48292490    -0.06800
N28         N  0.14948891  0.06684674  0.47321240    -0.59500
N29         N  0.16371151  0.44312183  0.52215075    -0.04500
N30         N  0.14376265  0.41259192  0.53383321    -0.60600
Mn31       Mn  0.19556171  0.48742608  0.55533429     1.18400
C32         C  0.13090825  0.39680936  0.50090731     0.97700
C33         C  0.13891973  0.08176536  0.50724944     0.98400
N34         N  0.33197598  0.44495583  0.52451537    -0.06800
N35         N  0.35252783  0.41688665  0.53985764    -0.63100
N36         N  0.33518180  0.03142389  0.47696374    -0.05600
N37         N  0.35259084  0.06141455  0.46154894    -0.63800
N38         N  0.33541666  0.03350258  0.51435032    -0.06300
N39         N  0.35352568  0.06517113  0.52509057    -0.63400
N40         N  0.33132324  0.44253863  0.48717851    -0.05200
N41         N  0.35158835  0.41228920  0.47633397    -0.64000
Mn42       Mn  0.30103660  0.48929824  0.55522811     1.10700
C43         C  0.36437554  0.39661692  0.50973015     0.98900
C44         C  0.36392059  0.08221240  0.49160543     0.99000
N45         N  0.23231904  0.03493501  0.41661839    -0.06300
N46         N  0.21922890  0.06279615  0.39429636    -0.61700
N47         N  0.26587861  0.44394263  0.42260385    -0.05600
N48         N  0.27935750  0.41724048  0.40004996    -0.58400
N49         N  0.22731711  0.44506561  0.42152312    -0.06900
N50         N  0.21378699  0.41865621  0.39827857    -0.61200
N51         N  0.27076536  0.03258791  0.41468116    -0.05900
N52         N  0.28461415  0.05899391  0.39106593    -0.58400
Mn53       Mn  0.19459018  0.48977701  0.45267117     1.20200
Mn54       Mn  0.30003816  0.48682897  0.45273436     1.10100
Cl55       Cl  0.24777894  0.48823821  0.50399912    -0.86400
C56         C  0.25214098  0.07768230  0.37862058     0.95900
C57         C  0.24666264  0.40151393  0.38515724     0.95700
N58         N  0.99979359  0.17864000  0.50041154    -0.37000
N59         N  0.06062806  0.23637053  0.50798647    -0.57600
N60         N  0.00002695  0.29522348  0.50503886    -0.37000
N61         N  0.43870414  0.23874182  0.49929061    -0.57600
C62         C  0.03223359  0.15652999  0.50297703     0.26500
C63         C  0.46822396  0.15952271  0.49747775     0.26500
C64         C  0.03066688  0.31598943  0.51808836     0.26500
C65         C  0.46710984  0.31984299  0.49533900     0.26500
C66         C  0.08377709  0.20679770  0.49802027     0.35200
C67         C  0.08385362  0.26764074  0.50969609     0.35200
C68         C  0.41611778  0.20797513  0.50746497     0.35200
C69         C  0.41495865  0.26959470  0.49953889     0.35200
C70         C  0.02155944  0.11979361  0.51404154    -0.22300
C71         C  0.47921198  0.12440890  0.48319912    -0.22300
C72         C  0.01725794  0.35150629  0.52930328    -0.22300
C73         C  0.47976018  0.35685974  0.48770663    -0.22300
C74         C  0.12217858  0.21919556  0.49407561    -0.23400
C75         C  0.12229214  0.25768036  0.50185437    -0.23400
C76         C  0.37754107  0.21926550  0.51241185    -0.23400
C77         C  0.37671859  0.25830244  0.50688479    -0.23400
C78         C  0.07108824  0.16841390  0.49487874    -0.18700
C79         C  0.42944447  0.16970313  0.50756571    -0.18700
C80         C  0.42736731  0.30776878  0.49353747    -0.18700
C81         C  0.07077054  0.30506425  0.51782705    -0.18700
H82         H  0.04039560  0.09528195  0.51842730     0.14200
H83         H  0.46078300  0.10003574  0.47736128     0.14200
H84         H  0.03434633  0.37478846  0.54072841     0.14200
H85         H  0.46230166  0.38099000  0.47819759     0.14200
H86         H  0.14753906  0.20219636  0.48692885     0.12500
H87         H  0.14763432  0.27630657  0.50114744     0.12500
H88         H  0.35250424  0.20120299  0.51850925     0.12500
H89         H  0.35106774  0.27636520  0.50877330     0.12500
H90         H  0.99909307  0.20653467  0.49034877     0.25700
H91         H  0.00133649  0.26863031  0.49262187     0.25700
C92         C  0.25354333  0.20776761  0.27314850     0.86100
C93         C  0.21832150  0.21346377  0.24630442    -0.54200
C94         C  0.21729709  0.24820424  0.22758638     0.09000
C95         C  0.25293254  0.27389151  0.23718694     0.19900
C96         C  0.28903691  0.21448635  0.24711299    -0.54900
C97         C  0.28944726  0.24918104  0.22856006     0.09100
C98         C  0.25269979  0.24217032  0.29938062    -0.54400
C99         C  0.25225564  0.27652210  0.28097390     0.09700
H100        H  0.19629946  0.19146384  0.24238059     0.14200
H101        H  0.25264631  0.30230894  0.22281555    -0.00100
H102        H  0.31106343  0.19296889  0.24193113     0.14500
H103        H  0.25208817  0.23958355  0.33026043     0.14300
N104        N  0.24979867  0.07012533  0.99468228    -0.37000
N105        N  0.31049082  0.51183958  0.00052753    -0.57600
N106        N  0.25119125  0.45404986  0.01719114    -0.37000
N107        N  0.19063701  0.51344067  0.01539614    -0.57600
C108        C  0.28175146  0.09041631  0.98387342     0.26500
C109        C  0.21765417  0.09010028  0.98367841     0.26500
C110        C  0.28241028  0.43161112  0.00953858     0.26500
C111        C  0.21853307  0.43230732  0.01383252     0.26500
C112        C  0.33372720  0.04425930  0.00570697     0.35200
C113        C  0.33437477  0.48175408  0.00781253     0.35200
C114        C  0.16625466  0.04231532  0.00230319     0.35200
C115        C  0.16869496  0.48294502  0.02586316     0.35200
C116        C  0.26971714  0.12411904  0.96615841    -0.22300
C117        C  0.22931098  0.12396145  0.96612808    -0.22300
C118        C  0.26955622  0.39490980  0.00192403    -0.22300
C119        C  0.22923613  0.39537863  0.00446061    -0.22300
C120        C  0.37205359  0.03515102  0.01571319    -0.23400
C121        C  0.37293373  0.49401770  0.01052130    -0.23400
C122        C  0.12780629  0.03174009  0.00977895    -0.23400
C123        C  0.13243467  0.49492596  0.03881910    -0.23400
C124        C  0.32132638  0.08047095  0.99150853    -0.18700
C125        C  0.17820766  0.07950520  0.99071876    -0.18700
C126        C  0.17961449  0.44440846  0.02094268    -0.18700
C127        C  0.32219428  0.44312168  0.01018330    -0.18700
H128        H  0.28809758  0.14675578  0.95482663     0.14200
H129        H  0.21068031  0.14637715  0.95466841     0.14200
H130        H  0.28736481  0.37039151  0.99501833     0.14200
H131        H  0.21005815  0.37114999  0.00022011     0.14200
H132        H  0.39758530  0.05348029  0.01502246     0.12500
H133        H  0.39879181  0.47684516  0.01588533     0.12500
H134        H  0.10190971  0.04956318  0.00889118     0.12500
H135        H  0.10824412  0.47727700  0.04842038     0.12500
H136        H  0.24988498  0.04505616  0.01052209     0.25700
H137        H  0.25234853  0.48212714  0.02609321     0.25700
N138        N  0.04607658  0.34752698  0.01287646    -0.06600
N139        N  0.07576176  0.36834434  0.02508000    -0.58700
N140        N  0.45757858  0.34393880  0.97255010    -0.06200
N141        N  0.42887986  0.36433340  0.95725863    -0.60800
N142        N  0.45711029  0.34643940  0.00995182    -0.05800
N143        N  0.42768145  0.36828750  0.02081710    -0.58600
N144        N  0.04677390  0.34505373  0.97550424    -0.05500
N145        N  0.07691817  0.36436333  0.96153508    -0.61200
C146        C  0.09476956  0.37858526  0.99277698     0.95600
C147        C  0.41031314  0.37907982  0.98761628     0.95400
N148        N  0.45625172  0.23818724  0.91813803    -0.06700
N149        N  0.42803793  0.22310532  0.89754599    -0.59200
N150        N  0.04714749  0.27676816  0.91689979    -0.04900
N151        N  0.07617077  0.28754635  0.89423259    -0.60500
N152        N  0.04659157  0.23930772  0.92062819    -0.06800
N153        N  0.07513835  0.22389892  0.90088309    -0.59500
N154        N  0.45637046  0.27563235  0.91429811    -0.04500
N155        N  0.42799533  0.28675481  0.89081675    -0.60600
Mn156      Mn  0.50214908  0.31006223  0.94279150     1.18400
C157        C  0.41050441  0.25355522  0.88070869     0.97700
C158        C  0.09347965  0.25417454  0.88462198     0.98400
N159        N  0.45645791  0.28771885  0.07949180    -0.06800
N160        N  0.42871509  0.30207641  0.10142217    -0.63100
N161        N  0.04564551  0.25092723  0.08403371    -0.05600
N162        N  0.07351125  0.23872142  0.10729133    -0.63800
N163        N  0.04617668  0.28847020  0.08126851    -0.06300
N164        N  0.07501001  0.30250085  0.10236557    -0.63400
N165        N  0.45663287  0.25019361  0.08229512    -0.07400
N166        N  0.42958312  0.23825336  0.10636512    -0.64000
Mn167      Mn  0.50229957  0.31754272  0.04563711     1.10700
C168        C  0.41211860  0.27072288  0.11778541     0.98900
C169        C  0.09188602  0.27098602  0.11827309     0.99000
N170        N  0.04665710  0.18048100  0.98868100    -0.06300
N171        N  0.07661907  0.15933073  0.97778583    -0.61700
N172        N  0.45459453  0.18319934  0.02417177    -0.05600
N173        N  0.42455029  0.16512280  0.03955975    -0.58400
N174        N  0.45417767  0.17991863  0.98692084    -0.06900
N175        N  0.42355698  0.15942687  0.97612747    -0.61200
N176        N  0.04638206  0.18340856  0.02596249    -0.05900
N177        N  0.07596761  0.16431764  0.04126657    -0.58400
Mn178      Mn  0.50048823  0.20739806  0.95193670     1.20200
Mn179      Mn  0.50051866  0.21508354  0.05356431     1.10100
Cl180      Cl  0.50118050  0.26260618  0.99846096    -0.86400
C181        C  0.09465058  0.14959346  0.01096260     0.95900
C182        C  0.40537169  0.15059172  0.00939179     0.95700
C183        C  0.37075239  0.12584694  0.01375596    -0.16900
C184        C  0.35197931  0.10991618  0.98438220    -0.32000
H185        H  0.36169749  0.11853231  0.04260190     0.12200
H186        H  0.35980729  0.11723303  0.95522933     0.12700
C187        C  0.14791980  0.41536295  0.02302269    -0.16900
C188        C  0.12980354  0.40334288  0.99133746    -0.32000
H189        H  0.13723299  0.40673338  0.05094477     0.12200
H190        H  0.14038443  0.41283095  0.96363011     0.12700
C191        C  0.35285775  0.41299116  0.01317213    -0.16900
C192        C  0.37721174  0.40600240  0.98416137    -0.32000
H193        H  0.35533917  0.39672195  0.03963173     0.12200
H194        H  0.37292349  0.42086334  0.95709790     0.12700
C195        C  0.12880307  0.12402048  0.01476675    -0.16900
C196        C  0.14723971  0.10892825  0.98481260    -0.32000
H197        H  0.13806621  0.11584350  0.04338066     0.12200
H198        H  0.13909426  0.11716839  0.95592526     0.12700
C199        C  0.35982811  0.24466682  0.20836544    -0.13800
C200        C  0.32216352  0.26013484  0.20233313     0.08400
C201        C  0.31592093  0.28353398  0.16994035    -0.13800
C202        C  0.34593391  0.28912591  0.14304721    -0.13800
C203        C  0.38233380  0.27102638  0.14807587     0.08400
C204        C  0.38923185  0.24949817  0.18128442    -0.13800
H205        H  0.36647429  0.22782896  0.23364117     0.12400
H206        H  0.28750597  0.29607687  0.16442183     0.12400
H207        H  0.34006681  0.30579771  0.11745586     0.12400
H208        H  0.41731578  0.23571039  0.18593838     0.12400
C209        C  0.14665071  0.24367246  0.20771451    -0.13800
C210        C  0.18419723  0.25916739  0.20146188     0.08400
C211        C  0.18975106  0.28306000  0.16926128    -0.13800
C212        C  0.15913492  0.28901659  0.14276063    -0.13800
C213        C  0.12272054  0.27090275  0.14802817     0.08400
C214        C  0.11661827  0.24899437  0.18112695    -0.13800
H215        H  0.14053801  0.22647972  0.23283758     0.12400
H216        H  0.21805775  0.29575147  0.16359661     0.12400
H217        H  0.16450009  0.30605299  0.11732871     0.12400
H218        H  0.08860014  0.23522442  0.18607661     0.12400
C219        C  0.21281289  0.35271095  0.34501447    -0.13800
C220        C  0.24744547  0.37110354  0.35636492     0.08400
C221        C  0.28328728  0.36004819  0.34009738    -0.13800
C222        C  0.28454216  0.33074067  0.31348320    -0.13800
C223        C  0.25003687  0.31202419  0.30279283     0.08400
C224        C  0.21417828  0.32314655  0.31862323    -0.13800
H225        H  0.18487117  0.36053349  0.35719777     0.12400
H226        H  0.31047377  0.37371307  0.34830622     0.12400
H227        H  0.31255714  0.32170894  0.30228357     0.12400
H228        H  0.18744391  0.30814263  0.31135515     0.12400
C229        C  0.28670127  0.11876610  0.33043149    -0.13800
C230        C  0.25227158  0.10911931  0.35003737     0.08400
C231        C  0.21798271  0.13001488  0.34239495    -0.13800
C232        C  0.21837841  0.16058852  0.31636339    -0.13800
C233        C  0.25285459  0.17068679  0.29664562     0.08400
C234        C  0.28710094  0.14918969  0.30419727    -0.13800
H235        H  0.31364003  0.10324021  0.33591247     0.12400
H236        H  0.19101522  0.12337130  0.35727498     0.12400
H237        H  0.19183967  0.17716316  0.31241995     0.12400
H238        H  0.31494010  0.15655212  0.29161186     0.12400
C239        C  0.39094494  0.36381305  0.51418584    -0.16900
C240        C  0.39695423  0.33768627  0.48735418    -0.32000
H241        H  0.40667153  0.36113245  0.54107648     0.12200
H242        H  0.38011847  0.33822170  0.46104502     0.12700
C243        C  0.11628509  0.11701351  0.51354541    -0.16900
C244        C  0.10024221  0.13829344  0.48566652    -0.32000
H245        H  0.10997378  0.12420814  0.54291957     0.12200
H246        H  0.10539274  0.13152481  0.45602379     0.12700
C247        C  0.10457702  0.36357615  0.49732945    -0.16900
C248        C  0.10056603  0.33572283  0.52366965    -0.32000
H249        H  0.08770366  0.36172790  0.47109187     0.12200
H250        H  0.11869146  0.33528298  0.54915615     0.12700
C251        C  0.38573623  0.11833413  0.48663586    -0.16900
C252        C  0.40099717  0.13828465  0.51536343    -0.32000
H253        H  0.39212092  0.12743917  0.45758761     0.12200
H254        H  0.39539437  0.12983856  0.54470863     0.12700
C255        C  0.32967363  0.27714427  0.80920233    -0.13800
C256        C  0.31783924  0.24032616  0.79835396     0.08400
C257        C  0.33610250  0.20850093  0.81557457    -0.13800
C258        C  0.36581410  0.21319944  0.84235074    -0.13800
C259        C  0.37809130  0.24983589  0.85290825     0.08400
C260        C  0.35965987  0.28187495  0.83624702    -0.13800
H261        H  0.31636680  0.30224865  0.79630968     0.12400
H262        H  0.32707962  0.17970345  0.80891667     0.12400
H263        H  0.37921753  0.18789692  0.85479518     0.12400
H264        H  0.36858482  0.31046568  0.84389491     0.12400
C265        C  0.17054588  0.27681605  0.80971852    -0.13800
C266        C  0.18588678  0.24029261  0.80302032     0.08400
C267        C  0.17225201  0.20915014  0.82484318    -0.13800
C268        C  0.14295186  0.21409392  0.85188740    -0.13800
C269        C  0.12654213  0.25030579  0.85780239     0.08400
C270        C  0.14096549  0.28179014  0.83686715    -0.13800
H271        H  0.18051779  0.30124634  0.79315172     0.12400
H272        H  0.18416735  0.18081090  0.82089964     0.12400
H273        H  0.13277800  0.18933483  0.86784434     0.12400
H274        H  0.12882685  0.31002081  0.84088099     0.12400
C275        C  0.21202257  0.32103940  0.68767334    -0.13800
C276        C  0.24686106  0.30810187  0.70460399     0.08400
C277        C  0.28187168  0.32809680  0.69825911    -0.13800
C278        C  0.28237692  0.35977591  0.67353780    -0.13800
C279        C  0.24778630  0.37175828  0.65510628     0.08400
C280        C  0.21239166  0.35285035  0.66334213    -0.13800
H281        H  0.18493323  0.30536005  0.69185298     0.12400
H282        H  0.30910134  0.31784733  0.71064293     0.12400
H283        H  0.30996515  0.37404655  0.66785804     0.12400
H284        H  0.18526564  0.36155956  0.64966247     0.12400
C285        C  0.28322188  0.15741143  0.67522362    -0.13800
C286        C  0.24848469  0.16684066  0.69454344     0.08400
C287        C  0.21382707  0.14708657  0.68517418    -0.13800
C288        C  0.21454937  0.11724140  0.65923053    -0.13800
C289        C  0.24975440  0.10673961  0.64172862     0.08400
C290        C  0.28401042  0.12728906  0.64966180    -0.13800
H291        H  0.30996224  0.17338344  0.67988048     0.12400
H292        H  0.18581886  0.15492513  0.69697101     0.12400
H293        H  0.18749381  0.10235563  0.65291370     0.12400
H294        H  0.31138828  0.12031780  0.63586121     0.12400
C295        C  0.25075718  0.70151283  0.72719956     0.86100
C296        C  0.28375830  0.70585385  0.75673936    -0.54200
C297        C  0.28267762  0.73971133  0.77589983     0.09000
C298        C  0.24857061  0.76612098  0.76364017     0.19900
C299        C  0.21339205  0.70725204  0.75061864    -0.54900
C300        C  0.21145881  0.74123320  0.76935342     0.09100
C301        C  0.25399072  0.73680176  0.70146400    -0.54400
C302        C  0.25303335  0.77042229  0.72024720     0.09700
H303        H  0.30546321  0.68395774  0.76288872     0.14200
H304        H  0.24810974  0.79388837  0.77846195    -0.00100
H305        H  0.19127072  0.68514263  0.75339313     0.14500
H306        H  0.25671366  0.73534166  0.67068146     0.14300
N307        N  0.26774991  0.53229035  0.58531739    -0.06600
N308        N  0.28157157  0.55894899  0.60784007    -0.58700
N309        N  0.23469056  0.94165065  0.58023293    -0.06200
N310        N  0.22208974  0.91472439  0.60381116    -0.60800
N311        N  0.27323980  0.94337430  0.58068013    -0.05800
N312        N  0.28768603  0.91707244  0.60413528    -0.58600
N313        N  0.22920176  0.53150820  0.58613975    -0.05500
N314        N  0.21594950  0.55807949  0.60908903    -0.61200
C315        C  0.24897407  0.57493433  0.62233030     0.95600
C316        C  0.25541871  0.89947041  0.61833475     0.95400
N317        N  0.16671954  0.94623495  0.47829051    -0.06700
N318        N  0.14550055  0.91909935  0.46279511    -0.59200
N319        N  0.16447156  0.53220972  0.52361228    -0.04900
N320        N  0.14651649  0.56170776  0.53851899    -0.60500
N321        N  0.16409786  0.53450824  0.48619090    -0.06800
N322        N  0.14542992  0.56596445  0.47489376    -0.59500
N323        N  0.16810146  0.94198124  0.51555190    -0.04500
N324        N  0.14759117  0.91143572  0.52614589    -0.60600
Mn325      Mn  0.19996048  0.98507443  0.54999858     1.18400
C326        C  0.13392896  0.89747475  0.49268143     0.97700
C327        C  0.13479258  0.58256098  0.50808908     0.98400
N328        N  0.33609787  0.94473540  0.51720585    -0.06800
N329        N  0.35604309  0.91620346  0.53245765    -0.63100
N330        N  0.33158675  0.53126654  0.48314970    -0.05600
N331        N  0.34995945  0.56048758  0.46739338    -0.63800
N332        N  0.33210273  0.53355617  0.52049584    -0.06300
N333        N  0.35134405  0.56471237  0.53091070    -0.63400
N334        N  0.33477523  0.94211589  0.47986593    -0.05200
N335        N  0.35408074  0.91119903  0.46902151    -0.64000
Mn336      Mn  0.30520124  0.98857235  0.54875385     1.10700
C337        C  0.36690766  0.89536546  0.50239787     0.98900
C338        C  0.36214243  0.58112687  0.49722457     0.99000
N339        N  0.22877656  0.53275410  0.42135371    -0.06300
N340        N  0.21581867  0.56024839  0.39852960    -0.61700
N341        N  0.26815717  0.94530368  0.41460197    -0.05600
N342        N  0.28006683  0.91874609  0.39090449    -0.58400
N343        N  0.22960745  0.94734982  0.41468630    -0.06900
N344        N  0.21451141  0.92165986  0.39163560    -0.61200
N345        N  0.26729572  0.53115646  0.42063491    -0.05900
N346        N  0.28136950  0.55770474  0.39739534    -0.58400
Mn347      Mn  0.19813432  0.99136131  0.44747169     1.20200
Mn348      Mn  0.30345573  0.98726318  0.44580916     1.10100
Cl349      Cl  0.25171164  0.98791986  0.49797970    -0.86400
C350        C  0.24894945  0.57565242  0.38385890     0.95900
C351        C  0.24628112  0.90408680  0.37694623     0.95700
N352        N  0.99763834  0.68163897  0.49694166    -0.37000
N353        N  0.05958670  0.73850423  0.50007530    -0.57600
N354        N  0.00031344  0.79822219  0.49499831    -0.37000
N355        N  0.43912610  0.73556449  0.49776855    -0.57600
C356        C  0.02979336  0.65925529  0.50072412     0.26500
C357        C  0.46891235  0.65586757  0.50141307     0.26500
C358        C  0.03131205  0.81873466  0.50764853     0.26500
C359        C  0.46732470  0.81613297  0.48653309     0.26500
C360        C  0.08164354  0.70824319  0.48993618     0.35200
C361        C  0.08315709  0.76954080  0.49863102     0.35200
C362        C  0.41693816  0.70536442  0.50876170     0.35200
C363        C  0.41538648  0.76648411  0.49686918     0.35200
C364        C  0.01866431  0.62354029  0.51447494    -0.22300
C365        C  0.47981447  0.61928744  0.49098192    -0.22300
C366        C  0.01843251  0.85442649  0.51897147    -0.22300
C367        C  0.47967493  0.85250174  0.47572822    -0.22300
C368        C  0.11967981  0.72006308  0.48239175    -0.23400
C369        C  0.12073323  0.75890051  0.48830394    -0.23400
C370        C  0.37858603  0.71707975  0.51439641    -0.23400
C371        C  0.37752042  0.75573890  0.50645820    -0.23400
C372        C  0.06859893  0.66983945  0.49069468    -0.18700
C373        C  0.43023620  0.66703741  0.51102158    -0.18700
C374        C  0.42748227  0.80424664  0.48774952    -0.18700
C375        C  0.07117319  0.80717115  0.50695969    -0.18700
H376        H  0.03703046  0.59895536  0.52014982     0.14200
H377        H  0.46134825  0.59431491  0.48848188     0.14200
H378        H  0.03591887  0.87751982  0.53022065     0.14200
H379        H  0.46181127  0.87602401  0.46542618     0.14200
H380        H  0.14427428  0.70244084  0.47432918     0.12500
H381        H  0.14608333  0.77725266  0.48495446     0.12500
H382        H  0.35382617  0.69951040  0.52265991     0.12500
H383        H  0.35196035  0.77393976  0.50816098     0.12500
H384        H  0.99717401  0.70873306  0.48477154     0.25700
H385        H  0.00102955  0.77151489  0.48266875     0.25700
C386        C  0.25192980  0.70397448  0.27663922     0.86100
C387        C  0.22004708  0.70580419  0.24571849    -0.54200
C388        C  0.21954402  0.73922308  0.22481606     0.09000
C389        C  0.25146025  0.76801678  0.23733290     0.19900
C390        C  0.28990283  0.71185758  0.25440612    -0.54900
C391        C  0.29025900  0.74550885  0.23404817     0.09100
C392        C  0.24536338  0.73947520  0.30060853    -0.54400
C393        C  0.24523494  0.77289012  0.28042159     0.09700
H394        H  0.19959319  0.68256425  0.24097216     0.14200
H395        H  0.25100702  0.79555875  0.22142163    -0.00100
H396        H  0.31314033  0.69106042  0.25206819     0.14500
H397        H  0.24220409  0.73835316  0.33139411     0.14300
N398        N  0.25031768  0.57159143  0.00399685    -0.37000
N399        N  0.31075496  0.01290180  0.00930457    -0.57600
N400        N  0.25080701  0.95503005  0.02545207    -0.37000
N401        N  0.18997423  0.01143466  0.00539716    -0.57600
C402        C  0.28081019  0.59221429  0.99032627     0.26500
C403        C  0.21761886  0.59317395  0.99999397     0.26500
C404        C  0.28325449  0.93275330  0.02580294     0.26500
C405        C  0.21930773  0.93169177  0.02251038     0.26500
C406        C  0.33365048  0.54319016  0.99906121     0.35200
C407        C  0.33415973  0.98423256  0.02200535     0.35200
C408        C  0.16873653  0.54478769  0.02213180     0.35200
C409        C  0.16687826  0.98152820  0.01531348     0.35200
C410        C  0.26743031  0.62765633  0.97779109    -0.22300
C411        C  0.22755138  0.62829923  0.98398461    -0.22300
C412        C  0.27215755  0.89467158  0.02429485    -0.22300
C413        C  0.23186961  0.89400155  0.02218157    -0.22300
C414        C  0.37251811  0.53282099  0.00467834    -0.23400
C415        C  0.37223090  0.99735247  0.02626817    -0.23400
C416        C  0.13251646  0.53409628  0.03661380    -0.23400
C417        C  0.12823010  0.99338784  0.01808755    -0.23400
C418        C  0.32062428  0.58091112  0.99127835    -0.18700
C419        C  0.17960767  0.58266045  0.01243153    -0.18700
C420        C  0.17953389  0.94321795  0.02020771    -0.18700
C421        C  0.32261455  0.94565113  0.02718121    -0.18700
H422        H  0.28468376  0.65086922  0.96592367     0.14200
H423        H  0.20822656  0.65209332  0.97774405     0.14200
H424        H  0.29111751  0.86988725  0.02412910     0.14200
H425        H  0.21392466  0.86858831  0.02012773     0.14200
H426        H  0.39802286  0.55123311  0.00464592     0.12500
H427        H  0.39771538  0.98121494  0.03541910     0.12500
H428        H  0.10832091  0.55251782  0.04403977     0.12500
H429        H  0.10284380  0.97619506  0.02523453     0.12500
H430        H  0.25215162  0.54517648  0.01746830     0.25700
H431        H  0.25014854  0.98441980  0.02791006     0.25700
N432        N  0.04687638  0.84479892  0.01386937    -0.06600
N433        N  0.07702286  0.86514648  0.02579963    -0.58700
N434        N  0.45559817  0.84677345  0.98290185    -0.06200
N435        N  0.42663915  0.86820810  0.96977070    -0.60800
N436        N  0.45656795  0.84731409  0.02040482    -0.05800
N437        N  0.42794254  0.86892452  0.03350372    -0.58600
N438        N  0.04467125  0.84587867  0.97641518    -0.05500
N439        N  0.07309844  0.86729471  0.96216243    -0.61200
C440        C  0.09313174  0.87885740  0.99323699     0.95600
C441        C  0.40952925  0.88160256  0.00152023     0.95400
N442        N  0.45015781  0.74445282  0.92354670    -0.06700
N443        N  0.42043360  0.73071832  0.90404570    -0.59200
N444        N  0.04080064  0.78360315  0.91180483    -0.04900
N445        N  0.06868802  0.79638357  0.88879397    -0.60500
N446        N  0.03926467  0.74604829  0.91120036    -0.06800
N447        N  0.06551420  0.73248474  0.88750766    -0.59500
N448        N  0.45102487  0.78197618  0.92091803    -0.04500
N449        N  0.42184943  0.79450084  0.89905762    -0.60600
Mn450      Mn  0.49844259  0.81421107  0.94954868     1.18400
C451        C  0.40287879  0.76204240  0.88898776     0.97700
C452        C  0.08377494  0.76405573  0.87394534     0.98400
N453        N  0.45770949  0.78529136  0.08656820    -0.06800
N454        N  0.43073557  0.79908591  0.10962220    -0.63100
N455        N  0.05089053  0.74231254  0.07545288    -0.05600
N456        N  0.08045362  0.72773828  0.09504897    -0.63800
N457        N  0.05102516  0.77984422  0.07719582    -0.06300
N458        N  0.08089847  0.79148692  0.09836700    -0.63400
N459        N  0.45746430  0.74771829  0.08782512    -0.07400
N460        N  0.43086769  0.73510041  0.11203941    -0.64000
Mn461      Mn  0.50250707  0.81613972  0.05286942     1.10700
C462        C  0.41424070  0.76733042  0.12513192     0.98900
C463        C  0.09914333  0.75855394  0.10914558     0.99000
N464        N  0.04383965  0.68164389  0.97372448    -0.06300
N465        N  0.07258534  0.66205667  0.95816618    -0.61700
N466        N  0.45215672  0.68395828  0.02646653    -0.05600
N467        N  0.42265638  0.66496786  0.04181794    -0.58400
N468        N  0.45041082  0.68276342  0.98910528    -0.06900
N469        N  0.41954960  0.66279695  0.97817300    -0.61200
N470        N  0.04694316  0.68088869  0.01105864    -0.05900
N471        N  0.07795162  0.66075147  0.02171597    -0.58400
Mn472      Mn  0.49541507  0.71140610  0.95385678     1.20200
Mn473      Mn  0.49966329  0.71364482  0.05584314     1.10100
Cl474      Cl  0.49896843  0.76393055  0.00301166    -0.86400
C475        C  0.09367388  0.64928747  0.98839194     0.95900
C476        C  0.40254772  0.65204809  0.01144274     0.95700
C477        C  0.36825478  0.62686907  0.01513428    -0.16900
C478        C  0.35088352  0.61070590  0.98512424    -0.32000
H479        H  0.35842967  0.61939275  0.04369794     0.12200
H480        H  0.36041757  0.61720423  0.95628035     0.12700
C481        C  0.14892847  0.91300346  0.02196694    -0.16900
C482        C  0.12626484  0.90577801  0.99155452    -0.32000
H483        H  0.14529840  0.89678396  0.04831523     0.12200
H484        H  0.13162999  0.92090356  0.96484428     0.12700
C485        C  0.35422430  0.91651142  0.03058744    -0.16900
C486        C  0.37661779  0.90876657  0.00031328    -0.32000
H487        H  0.35832293  0.90118613  0.05740639     0.12200
H488        H  0.37038408  0.92297939  0.97325174     0.12700
C489        C  0.12840238  0.62445469  0.98497271    -0.16900
C490        C  0.14899455  0.61258902  0.01551873    -0.32000
H491        H  0.13634884  0.61442252  0.95688576     0.12200
H492        H  0.14053904  0.62149686  0.04383578     0.12700
C493        C  0.36106563  0.74010830  0.21477193    -0.13800
C494        C  0.32369555  0.75630443  0.20863963     0.08400
C495        C  0.31819054  0.78032486  0.17652905    -0.13800
C496        C  0.34856865  0.78605977  0.15023059    -0.13800
C497        C  0.38441537  0.76707080  0.15516375     0.08400
C498        C  0.39067889  0.74468367  0.18788597    -0.13800
H499        H  0.36743810  0.72295134  0.23987051     0.12400
H500        H  0.29003038  0.79320850  0.17046908     0.12400
H501        H  0.34329753  0.80339824  0.12495030     0.12400
H502        H  0.41846491  0.73029134  0.19241183     0.12400
C503        C  0.17897446  0.71469994  0.17059288    -0.13800
C504        C  0.19151001  0.74568310  0.19262248     0.08400
C505        C  0.17586909  0.78209797  0.18451441    -0.13800
C506        C  0.14676212  0.78691612  0.15637897    -0.13800
C507        C  0.13290054  0.75539330  0.13586307     0.08400
C508        C  0.15004647  0.71946646  0.14273711    -0.13800
H509        H  0.19121659  0.68646800  0.17512920     0.12400
H510        H  0.18488341  0.80654850  0.20093786     0.12400
H511        H  0.13418295  0.81497535  0.15161760     0.12400
H512        H  0.14052075  0.69466738  0.12706410     0.12400
C513        C  0.21102453  0.84936632  0.34724240    -0.13800
C514        C  0.24431123  0.87291308  0.34903598     0.08400
C515        C  0.27614544  0.86557761  0.32488668    -0.13800
C516        C  0.27516620  0.83449163  0.30020112    -0.13800
C517        C  0.24276581  0.80984609  0.30002354     0.08400
C518        C  0.21052246  0.81771960  0.32335850    -0.13800
H519        H  0.18612991  0.85440695  0.36556656     0.12400
H520        H  0.30202987  0.88349888  0.32557342     0.12400
H521        H  0.30052940  0.82845771  0.28280077     0.12400
H522        H  0.18547073  0.79867276  0.32388462     0.12400
C523        C  0.28527098  0.61933949  0.33981902    -0.13800
C524        C  0.24960328  0.60691917  0.35528272     0.08400
C525        C  0.21476002  0.62491274  0.34357942    -0.13800
C526        C  0.21570880  0.65524740  0.31729745    -0.13800
C527        C  0.25141617  0.66790311  0.30152411     0.08400
C528        C  0.28627740  0.64958148  0.31356053    -0.13800
H529        H  0.31264348  0.60622480  0.34865941     0.12400
H530        H  0.18681002  0.61606258  0.35529423     0.12400
H531        H  0.18849105  0.66946509  0.30989626     0.12400
H532        H  0.31481088  0.65927302  0.30447677     0.12400
C533        C  0.39285232  0.86197259  0.50706694    -0.16900
C534        C  0.39692775  0.83417354  0.48152117    -0.32000
H535        H  0.40982507  0.86024454  0.53330600     0.12200
H536        H  0.37889386  0.83369625  0.45598972     0.12700
C537        C  0.11202927  0.61806270  0.51247005    -0.16900
C538        C  0.09732217  0.63874478  0.48342360    -0.32000
H539        H  0.10476977  0.62622719  0.54136723     0.12200
H540        H  0.10410504  0.63152392  0.45421068     0.12700
C541        C  0.10649576  0.86532127  0.48799122    -0.16900
C542        C  0.10179855  0.83681722  0.51342356    -0.32000
H543        H  0.08936603  0.86493412  0.46182949     0.12200
H544        H  0.12020934  0.83497829  0.53867386     0.12700
C545        C  0.38525487  0.61635725  0.49172536    -0.16900
C546        C  0.40145193  0.63624740  0.51999691    -0.32000
H547        H  0.39155040  0.62494146  0.46250361     0.12200
H548        H  0.39624003  0.62828459  0.54953853     0.12700
C549        C  0.33023228  0.78332329  0.80905355    -0.13800
C550        C  0.31041739  0.74816027  0.80719806     0.08400
C551        C  0.31857131  0.71972168  0.83454226    -0.13800
C552        C  0.34739537  0.72536133  0.86204253    -0.13800
C553        C  0.36891074  0.75954836  0.86285054     0.08400
C554        C  0.35948409  0.78898340  0.83672965    -0.13800
H555        H  0.32426384  0.80566344  0.78818940     0.12400
H556        H  0.30309916  0.69268749  0.83415278     0.12400
H557        H  0.35360178  0.70237678  0.88212834     0.12400
H558        H  0.37569190  0.81560013  0.83674797     0.12400
C559        C  0.18162676  0.77621658  0.82484165    -0.13800
C560        C  0.17748089  0.75105586  0.79412106     0.08400
C561        C  0.14077192  0.73348649  0.78831556    -0.13800
C562        C  0.11021861  0.73857187  0.81396769    -0.13800
C563        C  0.11490369  0.76259661  0.84515286     0.08400
C564        C  0.15034914  0.78230919  0.84990277    -0.13800
H565        H  0.20933091  0.79005287  0.83058086     0.12400
H566        H  0.13552035  0.71520322  0.76425174     0.12400
H567        H  0.08285757  0.72346616  0.80958860     0.12400
H568        H  0.15450046  0.80080038  0.87406517     0.12400
C569        C  0.22260041  0.83016946  0.69538673    -0.13800
C570        C  0.25574818  0.80690447  0.69926876     0.08400
C571        C  0.28955997  0.81534065  0.67813075    -0.13800
C572        C  0.28996744  0.84633450  0.65266594    -0.13800
C573        C  0.25618470  0.86864906  0.64733668     0.08400
C574        C  0.22268042  0.86068864  0.66929729    -0.13800
H575        H  0.19610323  0.82352442  0.71107413     0.12400
H576        H  0.31518103  0.79716981  0.68052217     0.12400
H577        H  0.31611005  0.85190407  0.63606597     0.12400
H578        H  0.19635460  0.87768574  0.66585195     0.12400
C579        C  0.28527620  0.64649295  0.69406531    -0.13800
C580        C  0.25036700  0.66552342  0.70353191     0.08400
C581        C  0.21541037  0.65481045  0.68494025    -0.13800
C582        C  0.21487310  0.62482371  0.65933510    -0.13800
C583        C  0.24955255  0.60572979  0.65038966     0.08400
C584        C  0.28480730  0.61676510  0.66788584    -0.13800
H585        H  0.31319713  0.65526039  0.70571586     0.12400
H586        H  0.18839503  0.67029163  0.68935588     0.12400
H587        H  0.18745248  0.61735330  0.64567183     0.12400
H588        H  0.31212456  0.60273488  0.66099789     0.12400
C589        C  0.75169589  0.19803355  0.72309523     0.86100
C590        C  0.78719103  0.20176951  0.75014018    -0.54200
C591        C  0.78699829  0.23415430  0.77154357     0.09000
C592        C  0.75130385  0.26008304  0.76391670     0.19900
C593        C  0.71632796  0.20119851  0.74969870    -0.54900
C594        C  0.71598516  0.23334463  0.77148966     0.09100
C595        C  0.75152667  0.23502514  0.69952128    -0.54400
C596        C  0.75144257  0.26737309  0.72051429     0.09700
H597        H  0.80984991  0.18038920  0.75375733     0.14200
H598        H  0.75135569  0.28646619  0.78108565    -0.00100
H599        H  0.69382104  0.17930550  0.75146949     0.14500
H600        H  0.75171917  0.23562007  0.66856820     0.14300
N601        N  0.76545679  0.03020290  0.57905197    -0.06600
N602        N  0.77886796  0.05622018  0.60249934    -0.58700
N603        N  0.73257750  0.44389342  0.58559417    -0.06200
N604        N  0.71953231  0.41656366  0.60852623    -0.60800
N605        N  0.77111392  0.44538911  0.58653568    -0.05800
N606        N  0.78507607  0.41869836  0.60990224    -0.58600
N607        N  0.72687388  0.02962045  0.57918788    -0.05500
N608        N  0.71321678  0.05578580  0.60246522    -0.61200
C609        C  0.74606136  0.07210785  0.61674740     0.95600
C610        C  0.75254821  0.40093605  0.62345238     0.95400
N611        N  0.66714544  0.44507788  0.48274087    -0.06700
N612        N  0.64877136  0.41575206  0.46785718    -0.59200
N613        N  0.66339326  0.03166889  0.51550578    -0.04900
N614        N  0.64318579  0.05946666  0.53088072    -0.60500
N615        N  0.66439947  0.03553054  0.47821895    -0.06800
N616        N  0.64472182  0.06662951  0.46750160    -0.59500
N617        N  0.66731601  0.44259335  0.52017164    -0.04500
N618        N  0.64846421  0.41131334  0.53150512    -0.60600
Mn619      Mn  0.69845289  0.48685207  0.55368047     1.18400
C620        C  0.63724597  0.39495898  0.49831626     0.97700
C621        C  0.63194024  0.08124240  0.50094453     0.98400
N622        N  0.83420778  0.44441820  0.52342080    -0.06800
N623        N  0.85174920  0.41485684  0.53953899    -0.63100
N624        N  0.83296124  0.03059793  0.47797502    -0.05600
N625        N  0.85472062  0.05825098  0.46358288    -0.63800
N626        N  0.83192844  0.03229751  0.51535752    -0.06300
N627        N  0.85311312  0.06170949  0.52714647    -0.63400
N628        N  0.83385315  0.44136452  0.48610166    -0.05200
N629        N  0.85177203  0.40939149  0.47612626    -0.64000
Mn630      Mn  0.80373281  0.48963925  0.55361840     1.10700
C631        C  0.86259570  0.39325277  0.51000694     0.98900
C632        C  0.86686647  0.07761925  0.49427262     0.99000
N633        N  0.73065300  0.03549596  0.41462862    -0.06300
N634        N  0.71796702  0.06396842  0.39294763    -0.61700
N635        N  0.76872124  0.44351969  0.41999129    -0.05600
N636        N  0.78138151  0.41822553  0.39538490    -0.58400
N637        N  0.73019967  0.44554765  0.41909578    -0.06900
N638        N  0.71587807  0.42127901  0.39412627    -0.61200
N639        N  0.76920178  0.03381066  0.41419847    -0.05900
N640        N  0.78352889  0.06141250  0.39226014    -0.58400
Mn641      Mn  0.69815137  0.48974212  0.45089958     1.20200
Mn642      Mn  0.80342331  0.48589699  0.45083946     1.10100
Cl643      Cl  0.75094443  0.48794708  0.50224455    -0.86400
C644        C  0.75119158  0.08003122  0.37927842     0.95900
C645        C  0.74813459  0.40440249  0.37959398     0.95700
N646        N  0.50036140  0.18188885  0.50103791    -0.37000
N647        N  0.55991489  0.24172464  0.50074351    -0.57600
N648        N  0.49815516  0.29836065  0.50661305    -0.37000
N649        N  0.93921151  0.23727010  0.50457368    -0.57600
C650        C  0.53154694  0.16181071  0.48840016     0.26500
C651        C  0.96867202  0.15672743  0.51058108     0.26500
C652        C  0.53024046  0.32106264  0.50585522     0.26500
C653        C  0.96744690  0.31703363  0.50782273     0.26500
C654        C  0.58375603  0.21099713  0.49851561     0.35200
C655        C  0.58240192  0.27150434  0.51162783     0.35200
C656        C  0.91597786  0.20603377  0.50320313     0.35200
C657        C  0.91650633  0.26771951  0.49547332     0.35200
C658        C  0.51884545  0.12614234  0.47673373    -0.22300
C659        C  0.98171357  0.12011207  0.51956436    -0.22300
C660        C  0.51932359  0.35779309  0.49500331    -0.22300
C661        C  0.97763991  0.35242400  0.52223361    -0.22300
C662        C  0.62192997  0.22150546  0.50714973    -0.23400
C663        C  0.62100333  0.25975939  0.51586527    -0.23400
C664        C  0.87793133  0.21675708  0.49403968    -0.23400
C665        C  0.87836613  0.25582504  0.48867758    -0.23400
C666        C  0.57146529  0.17359452  0.48912041    -0.18700
C667        C  0.92862411  0.16805046  0.51019065    -0.18700
C668        C  0.92910215  0.30623420  0.49643511    -0.18700
C669        C  0.56906459  0.30962948  0.51485424    -0.18700
H670        H  0.53633351  0.10329668  0.46519225     0.14200
H671        H  0.96437834  0.09582491  0.52880320     0.14200
H672        H  0.53788709  0.38269521  0.49186021     0.14200
H673        H  0.95879421  0.37658214  0.52745034     0.14200
H674        H  0.64763547  0.20338925  0.50770980     0.12500
H675        H  0.64599730  0.27708527  0.52366899     0.12500
H676        H  0.85265134  0.19831863  0.49099862     0.12500
H677        H  0.85330209  0.27351256  0.48155875     0.12500
H678        H  0.50092443  0.20844210  0.51352729     0.25700
H679        H  0.49754476  0.27029775  0.51608147     0.25700
C680        C  0.75186750  0.21042518  0.27410005     0.86100
C681        C  0.71814217  0.21286521  0.24496097    -0.54200
C682        C  0.71769972  0.24601041  0.22362547     0.09000
C683        C  0.75107865  0.27381057  0.23366848     0.19900
C684        C  0.78860917  0.21665820  0.24952450    -0.54900
C685        C  0.78853243  0.24987677  0.22846682     0.09100
C686        C  0.74814745  0.24650520  0.29771600    -0.54400
C687        C  0.74774904  0.27947219  0.27683424     0.09700
H688        H  0.69688581  0.19012209  0.24115613     0.14200
H689        H  0.75078857  0.30104260  0.21714183    -0.00100
H690        H  0.81139197  0.19536126  0.24667324     0.14500
H691        H  0.74669225  0.24609866  0.32863392     0.14300
N692        N  0.75103278  0.07005123  0.99257312    -0.37000
N693        N  0.80930318  0.51751907  0.99365284    -0.57600
N694        N  0.75099455  0.45776551  0.00513942    -0.37000
N695        N  0.68838589  0.51419056  0.99351780    -0.57600
C696        C  0.78335944  0.08946307  0.98109610     0.26500
C697        C  0.71918089  0.09033433  0.98117262     0.26500
C698        C  0.78378975  0.43865612  0.01606524     0.26500
C699        C  0.71964650  0.43701957  0.01684107     0.26500
C700        C  0.83479401  0.04209447  0.00161757     0.35200
C701        C  0.83368056  0.48699698  0.99547127     0.35200
C702        C  0.66670217  0.04396248  0.00071898     0.35200
C703        C  0.66603854  0.48245084  0.99744517     0.35200
C704        C  0.77185108  0.12283143  0.96242540    -0.22300
C705        C  0.73142649  0.12339519  0.96251193    -0.22300
C706        C  0.77309900  0.40502083  0.03462520    -0.22300
C707        C  0.73269698  0.40398595  0.03510723    -0.22300
C708        C  0.87339484  0.03149769  0.00848470    -0.23400
C709        C  0.87149939  0.49826399  0.98624300    -0.23400
C710        C  0.62787030  0.03397049  0.00720577    -0.23400
C711        C  0.62701949  0.49142433  0.99026483    -0.23400
C712        C  0.82286277  0.07898785  0.98874420    -0.18700
C713        C  0.67950614  0.08078187  0.98874921    -0.18700
C714        C  0.67971967  0.44592470  0.00951907    -0.18700
C715        C  0.82294608  0.44966232  0.00782856    -0.18700
H716        H  0.79059361  0.14473138  0.95025059     0.14200
H717        H  0.71317527  0.14576481  0.95039013     0.14200
H718        H  0.79235236  0.38322244  0.04628416     0.14200
H719        H  0.71498804  0.38124247  0.04721954     0.14200
H720        H  0.89948107  0.04887733  0.00562694     0.12500
H721        H  0.89774873  0.48096034  0.98594135     0.12500
H722        H  0.60217122  0.05196907  0.00496842     0.12500
H723        H  0.60176067  0.47280124  0.99212629     0.12500
H724        H  0.75073857  0.04547442  0.00919103     0.25700
H725        H  0.74999514  0.48240552  0.98858064     0.25700
N726        N  0.54815735  0.34506803  0.01037338    -0.06600
N727        N  0.57835141  0.36590163  0.02153679    -0.58700
N728        N  0.95605534  0.34516275  0.97394275    -0.06200
N729        N  0.92716167  0.36514042  0.95842202    -0.60800
N730        N  0.95516443  0.34769322  0.01131806    -0.05800
N731        N  0.92550117  0.36948924  0.02190190    -0.58600
N732        N  0.54780571  0.34230874  0.97302402    -0.05500
N733        N  0.57756258  0.36125838  0.95803260    -0.61200
C734        C  0.59645578  0.37560511  0.98852585     0.95600
C735        C  0.90823744  0.38003337  0.98854128     0.95400
N736        N  0.95653950  0.23959990  0.91965465    -0.06700
N737        N  0.92775077  0.22448021  0.89978274    -0.59200
N738        N  0.54709836  0.27442378  0.91528391    -0.04900
N739        N  0.57676596  0.28516383  0.89344337    -0.60500
N740        N  0.54625171  0.23697693  0.91891928    -0.06800
N741        N  0.57522494  0.22149665  0.89977143    -0.59500
N742        N  0.95653367  0.27705195  0.91571849    -0.04500
N743        N  0.92764115  0.28810433  0.89281600    -0.60600
Mn744      Mn  0.00171290  0.31200024  0.94450099     1.18400
C745        C  0.90983719  0.25491049  0.88323351     0.97700
C746        C  0.59413071  0.25178650  0.88406823     0.98400
N747        N  0.95477888  0.28787023  0.07985610    -0.06800
N748        N  0.92577182  0.30151453  0.10060148    -0.63100
N749        N  0.54630486  0.24829829  0.08070435    -0.05600
N750        N  0.57600879  0.23446830  0.10038316    -0.63800
N751        N  0.54773798  0.28581450  0.07891019    -0.06300
N752        N  0.57878254  0.29832076  0.09789183    -0.63400
N753        N  0.95584527  0.25036329  0.08273490    -0.07400
N754        N  0.92811271  0.23770364  0.10561225    -0.64000
Mn755      Mn  0.00042917  0.31899922  0.04718703     1.10700
C756        C  0.90934799  0.26972709  0.11618450     0.98900
C757        C  0.59615579  0.26572012  0.11094451     0.99000
N758        N  0.54563373  0.17863829  0.98696186    -0.06300
N759        N  0.57627681  0.15847703  0.97597400    -0.61700
N760        N  0.95565120  0.18293294  0.02507935    -0.05600
N761        N  0.92623599  0.16328985  0.03990600    -0.58400
N762        N  0.95541829  0.18034418  0.98775782    -0.06900
N763        N  0.92570065  0.15890274  0.97638960    -0.61200
N764        N  0.54524855  0.18146595  0.02421477    -0.05900
N765        N  0.57546328  0.16328530  0.03944862    -0.58400
Mn766      Mn  0.00126028  0.20904461  0.95342231     1.20200
Mn767      Mn  0.00091610  0.21621045  0.05520410     1.10100
Cl768      Cl  0.00106652  0.26411689  0.00006069    -0.86400
C769        C  0.59461504  0.14921566  0.00911120     0.95900
C770        C  0.90769362  0.14861055  0.00931584     0.95700
C771        C  0.87379923  0.12246012  0.01274774    -0.16900
C772        C  0.85395876  0.10852098  0.98281847    -0.32000
H773        H  0.86561029  0.11313416  0.04128019     0.12200
H774        H  0.86060215  0.11827311  0.95406290     0.12700
C775        C  0.65003451  0.41516968  0.01505703    -0.16900
C776        C  0.63040076  0.40141616  0.98499744    -0.32000
H777        H  0.64355601  0.40505222  0.04372798     0.12200
H778        H  0.63827522  0.41121592  0.95652690     0.12700
C779        C  0.85473404  0.42080861  0.01391171    -0.16900
C780        C  0.87453520  0.40641799  0.98432004    -0.32000
H781        H  0.86156307  0.41144521  0.04278911     0.12200
H782        H  0.86630588  0.41523720  0.95559701     0.12700
C783        C  0.62956572  0.12469166  0.01286771    -0.16900
C784        C  0.64906698  0.11080207  0.98291884    -0.32000
H785        H  0.63825348  0.11580150  0.04145059     0.12200
H786        H  0.64158798  0.11984683  0.95409203     0.12700
C787        C  0.85846983  0.24560672  0.20766661    -0.13800
C788        C  0.82030539  0.25935319  0.20101071     0.08400
C789        C  0.81252387  0.27985320  0.16701227    -0.13800
C790        C  0.84206713  0.28518354  0.13974784    -0.13800
C791        C  0.87935462  0.26944575  0.14595671     0.08400
C792        C  0.88742144  0.25004975  0.18016832    -0.13800
H793        H  0.86594386  0.23071816  0.23390394     0.12400
H794        H  0.78337198  0.29039385  0.16069393     0.12400
H795        H  0.83534716  0.29991581  0.11319814     0.12400
H796        H  0.91619901  0.23794860  0.18545579     0.12400
C797        C  0.67756531  0.22214788  0.16937076    -0.13800
C798        C  0.68945234  0.25276217  0.19204077     0.08400
C799        C  0.67368198  0.28926522  0.18469641    -0.13800
C800        C  0.64454039  0.29442159  0.15676740    -0.13800
C801        C  0.63099844  0.26310406  0.13590312     0.08400
C802        C  0.64873120  0.22726196  0.14165326    -0.13800
H803        H  0.69015227  0.19398322  0.17343995     0.12400
H804        H  0.68255847  0.31339881  0.20165420     0.12400
H805        H  0.63139425  0.32234394  0.15276439     0.12400
H806        H  0.63943155  0.20270094  0.12548143     0.12400
C807        C  0.71175916  0.36035875  0.33628140    -0.13800
C808        C  0.74743468  0.37585143  0.34899856     0.08400
C809        C  0.78270081  0.36290776  0.33309007    -0.13800
C810        C  0.78244321  0.33346969  0.30663637    -0.13800
C811        C  0.74698822  0.31657788  0.29579100     0.08400
C812        C  0.71158374  0.33066320  0.31002867    -0.13800
H813        H  0.68415468  0.36997412  0.34788682     0.12400
H814        H  0.81059462  0.37456729  0.34210071     0.12400
H815        H  0.81002349  0.32231501  0.29636221     0.12400
H816        H  0.68404663  0.31731849  0.30235968     0.12400
C817        C  0.78713590  0.12689396  0.33781020    -0.13800
C818        C  0.75166352  0.11275783  0.35226392     0.08400
C819        C  0.71643899  0.13030133  0.34087049    -0.13800
C820        C  0.71666995  0.16118445  0.31523637    -0.13800
C821        C  0.75204030  0.17476128  0.29955672     0.08400
C822        C  0.78739883  0.15775624  0.31214673    -0.13800
H823        H  0.81479337  0.11441125  0.34670425     0.12400
H824        H  0.68862505  0.12041363  0.35207015     0.12400
H825        H  0.68907242  0.17473602  0.30796615     0.12400
H826        H  0.81558799  0.16872749  0.30333085     0.12400
C827        C  0.88474522  0.35749188  0.51590343    -0.16900
C828        C  0.90030032  0.33713086  0.48775653    -0.32000
H829        H  0.89127418  0.34916068  0.54518793     0.12200
H830        H  0.89436155  0.34466350  0.45820392     0.12700
C831        C  0.60499609  0.11372257  0.50578010    -0.16900
C832        C  0.60198338  0.14391933  0.48201779    -0.32000
H833        H  0.58678954  0.11297328  0.53113701     0.12200
H834        H  0.62172571  0.14716881  0.45799270     0.12700
C835        C  0.61444169  0.35955522  0.49398818    -0.16900
C836        C  0.59803844  0.34024156  0.52294121    -0.32000
H837        H  0.60833456  0.35048854  0.46507111     0.12200
H838        H  0.60261074  0.34905872  0.55214761     0.12700
C839        C  0.89489821  0.10947771  0.49079211    -0.16900
C840        C  0.89822635  0.13783366  0.51585090    -0.32000
H841        H  0.91319358  0.11016308  0.46549953     0.12200
H842        H  0.87821315  0.13962157  0.53975089     0.12700
C843        C  0.83301245  0.27727047  0.80727619    -0.13800
C844        C  0.81655350  0.24093266  0.80182979     0.08400
C845        C  0.82910772  0.21031833  0.82503464    -0.13800
C846        C  0.85861467  0.21541945  0.85202239    -0.13800
C847        C  0.87636492  0.25127881  0.85655749     0.08400
C848        C  0.86286133  0.28240712  0.83440475    -0.13800
H849        H  0.82370681  0.30132161  0.78975357     0.12400
H850        H  0.81621694  0.18221139  0.82215495     0.12400
H851        H  0.86794329  0.19098773  0.86899730     0.12400
H852        H  0.87597406  0.31039394  0.83740059     0.12400
C853        C  0.67379137  0.27569697  0.81209359    -0.13800
C854        C  0.68647997  0.23900192  0.80205078     0.08400
C855        C  0.67056401  0.20713424  0.82135810    -0.13800
C856        C  0.64142310  0.21161737  0.84862307    -0.13800
C857        C  0.62748739  0.24808845  0.85754802     0.08400
C858        C  0.64445709  0.28021114  0.83961183    -0.13800
H859        H  0.68552725  0.30079740  0.79784098     0.12400
H860        H  0.68060460  0.17849393  0.81548649     0.12400
H861        H  0.62937274  0.18631985  0.86231072     0.12400
H862        H  0.63438232  0.30870509  0.84613190     0.12400
C863        C  0.71698082  0.32280891  0.69082275    -0.13800
C864        C  0.75223120  0.30519478  0.70159009     0.08400
C865        C  0.78782083  0.32009687  0.68806996    -0.13800
C866        C  0.78811273  0.35187712  0.66339089    -0.13800
C867        C  0.75272379  0.36891078  0.65152092     0.08400
C868        C  0.71719827  0.35444384  0.66602569    -0.13800
H869        H  0.68923750  0.31105855  0.70032889     0.12400
H870        H  0.81523450  0.30619581  0.69546369     0.12400
H871        H  0.81590829  0.36235571  0.65268856     0.12400
H872        H  0.68946897  0.36698832  0.65747199     0.12400
C873        C  0.78314444  0.14002723  0.69112832    -0.13800
C874        C  0.75008318  0.16309699  0.69767716     0.08400
C875        C  0.71531214  0.15524212  0.67734172    -0.13800
C876        C  0.71342234  0.12493025  0.65189462    -0.13800
C877        C  0.74665117  0.10252369  0.64530342     0.08400
C878        C  0.78136685  0.11018091  0.66529189    -0.13800
H879        H  0.81110263  0.14547482  0.70438018     0.12400
H880        H  0.68961912  0.17300693  0.68079215     0.12400
H881        H  0.68638171  0.11979065  0.63652651     0.12400
H882        H  0.80751384  0.09337837  0.66054359     0.12400
C883        C  0.74601712  0.70375501  0.72388938     0.86100
C884        C  0.78131355  0.70911387  0.75070580    -0.54200
C885        C  0.78002437  0.74187496  0.77161660     0.09000
C886        C  0.74337952  0.76643776  0.76365123     0.19900
C887        C  0.71055360  0.70607501  0.75068083    -0.54900
C888        C  0.70897886  0.73874851  0.77166370     0.09100
C889        C  0.74438934  0.74017164  0.69975722    -0.54400
C890        C  0.74314820  0.77278253  0.72019543     0.09700
H891        H  0.80462168  0.68823933  0.75404726     0.14200
H892        H  0.74247548  0.79314993  0.78030721    -0.00100
H893        H  0.68903047  0.68339462  0.75354043     0.14500
H894        H  0.74485593  0.74025169  0.66880039     0.14300
N895        N  0.76983399  0.53317096  0.58323154    -0.06600
N896        N  0.78280166  0.56136802  0.60443781    -0.58700
N897        N  0.72705499  0.94232673  0.57775821    -0.06200
N898        N  0.71323839  0.91573158  0.60105859    -0.60800
N899        N  0.76558275  0.94319821  0.57914020    -0.05800
N900        N  0.77880254  0.91691074  0.60325428    -0.58600
N901        N  0.73131338  0.53151797  0.58409910    -0.05500
N902        N  0.71723566  0.55883178  0.60566001    -0.61200
C903        C  0.74964451  0.57724481  0.61811243     0.95600
C904        C  0.74582147  0.89997099  0.61664876     0.95400
N905        N  0.66399578  0.94625090  0.47409497    -0.06700
N906        N  0.64689310  0.91665675  0.45827769    -0.59200
N907        N  0.66702218  0.53128868  0.52187392    -0.04900
N908        N  0.64746264  0.55982213  0.53673518    -0.60500
N909        N  0.66733413  0.53402492  0.48449219    -0.06800
N910        N  0.64767636  0.56487580  0.47315413    -0.59500
N911        N  0.66352009  0.94295414  0.51146007    -0.04500
N912        N  0.64559244  0.91083333  0.52179264    -0.60600
Mn913      Mn  0.69404023  0.98629703  0.54659224     1.18400
C914        C  0.63550701  0.89483033  0.48810692     0.97700
C915        C  0.63567465  0.58063832  0.50630431     0.98400
N916        N  0.82998099  0.94341411  0.51704194    -0.06800
N917        N  0.84728266  0.91326151  0.53227161    -0.63100
N918        N  0.83540954  0.53033384  0.48108833    -0.05600
N919        N  0.85485683  0.55878091  0.46507374    -0.63800
N920        N  0.83486180  0.53368335  0.51834663    -0.06300
N921        N  0.85411816  0.56499923  0.52837226    -0.63400
N922        N  0.83083289  0.94217830  0.47961343    -0.05200
N923        N  0.84946101  0.91097382  0.46864637    -0.64000
Mn924      Mn  0.79931543  0.98766313  0.54830193     1.10700
C925        C  0.85936595  0.89332073  0.50203132     0.98900
C926        C  0.86619439  0.58033341  0.49459091     0.99000
N927        N  0.73248209  0.53272525  0.41979216    -0.06300
N928        N  0.71965761  0.56077111  0.39758731    -0.61700
N929        N  0.76687602  0.94637833  0.41303085    -0.05600
N930        N  0.77996131  0.92014816  0.38962218    -0.58400
N931        N  0.72834887  0.94800115  0.41191792    -0.06900
N932        N  0.71440601  0.92238985  0.38807736    -0.61200
N933        N  0.77098638  0.53063846  0.41868985    -0.05900
N934        N  0.78517231  0.55744744  0.39579868    -0.58400
Mn935      Mn  0.69568873  0.99176386  0.44398112     1.20200
Mn936      Mn  0.80107725  0.98788552  0.44548231     1.10100
Cl937      Cl  0.74754975  0.98844273  0.49608618    -0.86400
C938        C  0.75284250  0.57604778  0.38290784     0.95900
C939        C  0.74694802  0.90528314  0.37434185     0.95700
N940        N  0.50099305  0.67860075  0.50164708    -0.37000
N941        N  0.56051916  0.73840260  0.49462496    -0.57600
N942        N  0.49883209  0.79536754  0.49791224    -0.37000
N943        N  0.93821223  0.74121001  0.49908261    -0.57600
C944        C  0.53198383  0.65733563  0.49057576     0.26500
C945        C  0.96631406  0.66086408  0.50880382     0.26500
C946        C  0.53086595  0.81789570  0.49434215     0.26500
C947        C  0.96808392  0.82036102  0.49819166     0.26500
C948        C  0.58418381  0.70744617  0.49509196     0.35200
C949        C  0.58310926  0.76887560  0.50323258     0.35200
C950        C  0.91438397  0.71032692  0.49891369     0.35200
C951        C  0.91609840  0.77163415  0.48860259     0.35200
C952        C  0.51933224  0.62038027  0.48353271    -0.22300
C953        C  0.97888671  0.62478506  0.52019052    -0.22300
C954        C  0.51953194  0.85382394  0.48130906    -0.22300
C955        C  0.97867197  0.85564971  0.51246193    -0.22300
C956        C  0.62237670  0.71842388  0.50304405    -0.23400
C957        C  0.62160952  0.75730911  0.50868056    -0.23400
C958        C  0.87658161  0.72130090  0.48916059    -0.23400
C959        C  0.87776156  0.76013538  0.48217864    -0.23400
C960        C  0.57173711  0.66943712  0.48876352    -0.18700
C961        C  0.92641013  0.67246969  0.50750825    -0.18700
C962        C  0.92956530  0.80987284  0.48758248    -0.18700
C963        C  0.56984668  0.80719668  0.50359342    -0.18700
H964        H  0.53681867  0.59636009  0.47455346     0.14200
H965        H  0.96119533  0.60136242  0.53093591     0.14200
H966        H  0.53789148  0.87847741  0.47586117     0.14200
H967        H  0.95972728  0.87968826  0.51809310     0.14200
H968        H  0.64795043  0.70022659  0.50528948     0.12500
H969        H  0.64662371  0.77510076  0.51530279     0.12500
H970        H  0.85100646  0.70315234  0.48676569     0.12500
H971        H  0.85309511  0.77795151  0.47408643     0.12500
H972        H  0.50171609  0.70651141  0.51077851     0.25700
H973        H  0.49859029  0.76812271  0.50960874     0.25700
C974        C  0.75590208  0.70568072  0.27687959     0.86100
C975        C  0.72167442  0.70746924  0.24829788    -0.54200
C976        C  0.72073766  0.74003640  0.22612418     0.09000
C977        C  0.75470358  0.76789660  0.23451766     0.19900
C978        C  0.79235071  0.71117852  0.25175026    -0.54900
C979        C  0.79171159  0.74324268  0.22907781     0.09100
C980        C  0.75260291  0.74244108  0.29948106    -0.54400
C981        C  0.75198307  0.77488748  0.27771456     0.09700
H982        H  0.69996005  0.68491161  0.24606866     0.14200
H983        H  0.75431368  0.79435268  0.21673980    -0.00100
H984        H  0.81576473  0.69048440  0.24975765     0.14500
H985        H  0.75082639  0.74282011  0.33037155     0.14300
N986        N  0.74669738  0.57337107  0.97724793    -0.37000
N987        N  0.81091659  0.01160928  0.00719750    -0.57600
N988        N  0.74980577  0.95534682  0.02488241    -0.37000
N989        N  0.68989797  0.01287418  0.00518426    -0.57600
C990        C  0.77795396  0.59711618  0.97918693     0.26500
C991        C  0.71394005  0.59514591  0.97860241     0.26500
C992        C  0.78163808  0.93222652  0.02584728     0.26500
C993        C  0.71761633  0.93275691  0.02367270     0.26500
C994        C  0.83134691  0.54787229  0.98277793     0.35200
C995        C  0.83407759  0.98206337  0.01830699     0.35200
C996        C  0.66389833  0.54293667  0.98315385     0.35200
C997        C  0.66612294  0.98347038  0.01506855     0.35200
C998        C  0.76487592  0.63458706  0.98088380    -0.22300
C999        C  0.72453047  0.63334609  0.98043579    -0.22300
C1000       C  0.76943410  0.89440872  0.02639469    -0.22300
C1001       C  0.72911936  0.89473752  0.02496808    -0.22300
C1002       C  0.86997515  0.53661315  0.97802671    -0.23400
C1003       C  0.87290050  0.99375133  0.01924356    -0.23400
C1004       C  0.62573406  0.52954144  0.98105376    -0.23400
C1005       C  0.62754060  0.99581485  0.01634491    -0.23400
C1006       C  0.81794056  0.58610444  0.97903303    -0.18700
C1007       C  0.67476267  0.58168755  0.97794472    -0.18700
C1008       C  0.67812284  0.94516842  0.02143157    -0.18700
C1009       C  0.82142284  0.94404655  0.02572785    -0.18700
H1010       H  0.78254156  0.66021674  0.98255263     0.14200
H1011       H  0.70522282  0.65782461  0.98172402     0.14200
H1012       H  0.78767078  0.86911311  0.02708829     0.14200
H1013       H  0.71044564  0.86972579  0.02444897     0.14200
H1014       H  0.89469837  0.55422770  0.96976771     0.12500
H1015       H  0.89842009  0.97678274  0.02655406     0.12500
H1016       H  0.59951026  0.54567281  0.97422547     0.12500
H1017       H  0.60170115  0.97904995  0.02294478     0.12500
H1018       H  0.74773792  0.54406841  0.97403538     0.25700
H1019       H  0.74997659  0.98482717  0.02572761     0.25700
N1020       N  0.54704590  0.84498305  0.01747137    -0.06600
N1021       N  0.57687691  0.86597685  0.02898374    -0.58700
N1022       N  0.95454746  0.84564191  0.98061097    -0.06200
N1023       N  0.92447249  0.86597114  0.96830944    -0.60800
N1024       N  0.95587153  0.84503138  0.01811656    -0.05800
N1025       N  0.92631350  0.86504583  0.03202294    -0.58600
N1026       N  0.54550279  0.84444661  0.98000323    -0.05500
N1027       N  0.57413907  0.86523803  0.96529163    -0.61200
C1028       C  0.59353171  0.87825112  0.99613018     0.95600
C1029       C  0.90699395  0.87774994  0.00043986     0.95400
N1030       N  0.95000911  0.74651180  0.91722707    -0.06700
N1031       N  0.92057675  0.73276383  0.89744040    -0.59200
N1032       N  0.54154720  0.77942130  0.91821373    -0.04900
N1033       N  0.57017479  0.79054447  0.89521019    -0.60500
N1034       N  0.54010122  0.74188619  0.92030770    -0.06800
N1035       N  0.56763785  0.72673713  0.89907380    -0.59500
N1036       N  0.94999157  0.78407596  0.91597004    -0.04500
N1037       N  0.92020926  0.79663684  0.89481607    -0.60600
Mn1038     Mn  0.99758210  0.81593891  0.94536315     1.18400
C1039       C  0.90200586  0.76405224  0.88367038     0.97700
C1040       C  0.58628066  0.75726281  0.88359417     0.98400
N1041       N  0.96020219  0.77997688  0.08159727    -0.06800
N1042       N  0.93165086  0.79197848  0.10390873    -0.63100
N1043       N  0.54679729  0.74489784  0.08348540    -0.05600
N1044       N  0.57580554  0.73002546  0.10346957    -0.63800
N1045       N  0.54847720  0.78243115  0.08343855    -0.06300
N1046       N  0.57897559  0.79386448  0.10385861    -0.63400
N1047       N  0.96067681  0.74241979  0.08066679    -0.07400
N1048       N  0.93247040  0.72812287  0.10210717    -0.64000
Mn1049     Mn  0.00352691  0.81355449  0.04870860     1.10700
C1050       C  0.91450900  0.75921774  0.11644066     0.98900
C1051       C  0.59580411  0.76066149  0.11599861     0.99000
N1052       N  0.54136392  0.68010296  0.98564926    -0.06300
N1053       N  0.57075577  0.65951293  0.97250954    -0.61700
N1054       N  0.95639806  0.68085833  0.01716183    -0.05600
N1055       N  0.92785718  0.66027540  0.03228636    -0.58400
N1056       N  0.95308063  0.68214733  0.97986706    -0.06900
N1057       N  0.92195396  0.66262928  0.96878628    -0.61200
N1058       N  0.54254404  0.68101675  0.02303033    -0.05900
N1059       N  0.57261756  0.66111376  0.03619159    -0.58400
Mn1060     Mn  0.99641467  0.71330198  0.94483604     1.20200
Mn1061     Mn  0.00389669  0.71075880  0.04684908     1.10100
Cl1062     Cl  0.00041461  0.76344895  0.99644549    -0.86400
C1063       C  0.58997495  0.64794193  0.00447235     0.95900
C1064       C  0.90649596  0.64932373  0.00187719     0.95700
C1065       C  0.87279396  0.62320348  0.00495638    -0.16900
C1066       C  0.84811832  0.61668381  0.97590535    -0.32000
H1067       H  0.86884612  0.60773035  0.03171748     0.12200
H1068       H  0.85026771  0.63317569  0.94956533     0.12700
C1069       C  0.64699013  0.91569185  0.02459931    -0.16900
C1070       C  0.62660851  0.90511875  0.99375260    -0.32000
H1071       H  0.64114795  0.90280755  0.05231848     0.12200
H1072       H  0.63389269  0.91732976  0.96604727     0.12700
C1073       C  0.85232128  0.91412131  0.02995207    -0.16900
C1074       C  0.87310698  0.90389096  0.99938955    -0.32000
H1075       H  0.85812682  0.90139663  0.05777633     0.12200
H1076       H  0.86541129  0.91626684  0.97180195     0.12700
C1077       C  0.62470919  0.62293058  0.00571175    -0.16900
C1078       C  0.64262347  0.61020856  0.97440834    -0.32000
H1079       H  0.63536689  0.61367404  0.03354273     0.12200
H1080       H  0.63272401  0.61901428  0.94620491     0.12700
C1081       C  0.83549777  0.71702818  0.17891614    -0.13800
C1082       C  0.82104573  0.74900510  0.19818398     0.08400
C1083       C  0.83554725  0.78538541  0.18823616    -0.13800
C1084       C  0.86550477  0.78925776  0.16097166    -0.13800
C1085       C  0.88111573  0.75678681  0.14325854     0.08400
C1086       C  0.86519569  0.72083234  0.15208645    -0.13800
H1087       H  0.82395360  0.68872260  0.18468108     0.12400
H1088       H  0.82472025  0.81054070  0.20239630     0.12400
H1089       H  0.87704416  0.81740945  0.15443180     0.12400
H1090       H  0.87598069  0.69532733  0.13850420     0.12400
C1091       C  0.67559155  0.71538178  0.17584274    -0.13800
C1092       C  0.69057154  0.74651867  0.19605721     0.08400
C1093       C  0.67594062  0.78330861  0.18782839    -0.13800
C1094       C  0.64580221  0.78852771  0.16090092    -0.13800
C1095       C  0.62996368  0.75700449  0.14186154     0.08400
C1096       C  0.64568049  0.72054573  0.14919752    -0.13800
H1097       H  0.68692486  0.68682791  0.18064089     0.12400
H1098       H  0.68683060  0.80783146  0.20306489     0.12400
H1099       H  0.63419224  0.81692729  0.15578195     0.12400
H1100       H  0.63447840  0.69569448  0.13466319     0.12400
C1101       C  0.71270715  0.85317958  0.33914245    -0.13800
C1102       C  0.74674577  0.87473871  0.34568003     0.08400
C1103       C  0.78112229  0.86594478  0.32559318    -0.13800
C1104       C  0.78188551  0.83514833  0.30060470    -0.13800
C1105       C  0.74847318  0.81246165  0.29576676     0.08400
C1106       C  0.71371685  0.82197178  0.31470090    -0.13800
H1107       H  0.68585913  0.85933671  0.35424892     0.12400
H1108       H  0.80769819  0.88228942  0.32993042     0.12400
H1109       H  0.80911860  0.82767671  0.28678072     0.12400
H1110       H  0.68787411  0.80421448  0.31178282     0.12400
C1111       C  0.78886486  0.61923899  0.33809357    -0.13800
C1112       C  0.75359708  0.60826027  0.35538692     0.08400
C1113       C  0.71926128  0.62863456  0.34658554    -0.13800
C1114       C  0.72030614  0.65963367  0.32109753    -0.13800
C1115       C  0.75547905  0.67044436  0.30299048     0.08400
C1116       C  0.78991413  0.65000842  0.31242659    -0.13800
H1117       H  0.81589250  0.60431893  0.34476785     0.12400
H1118       H  0.69168127  0.62103486  0.35988129     0.12400
H1119       H  0.69352989  0.67544172  0.31571410     0.12400
H1120       H  0.81824211  0.65813724  0.30147395     0.12400
C1121       C  0.88111622  0.85723320  0.50668465    -0.16900
C1122       C  0.90148052  0.84116250  0.47869648    -0.32000
H1123       H  0.88345256  0.84523198  0.53532407     0.12200
H1124       H  0.90140965  0.85375092  0.45026370     0.12700
C1125       C  0.61019531  0.61431899  0.51047740    -0.16900
C1126       C  0.60204865  0.63954472  0.48254270    -0.32000
H1127       H  0.59663379  0.61812948  0.53814113     0.12200
H1128       H  0.61602426  0.63749912  0.45490987     0.12700
C1129       C  0.61396530  0.85872378  0.48286788    -0.16900
C1130       C  0.59836546  0.83829288  0.51153018    -0.32000
H1131       H  0.60795705  0.85016762  0.45377887     0.12200
H1132       H  0.60330152  0.84648597  0.54087080     0.12700
C1133       C  0.89180022  0.61399665  0.48908133    -0.16900
C1134       C  0.89587321  0.64246442  0.51400317    -0.32000
H1135       H  0.90858851  0.61527158  0.46283082     0.12200
H1136       H  0.87793892  0.64333378  0.53946343     0.12700
C1137       C  0.82468074  0.78644139  0.80782029    -0.13800
C1138       C  0.80898538  0.74973473  0.80216892     0.08400
C1139       C  0.82162632  0.71947715  0.82565173    -0.13800
C1140       C  0.85060517  0.72508754  0.85290576    -0.13800
C1141       C  0.86799596  0.76112022  0.85750940     0.08400
C1142       C  0.85423972  0.79210629  0.83529291    -0.13800
H1143       H  0.81514752  0.81028553  0.79013137     0.12400
H1144       H  0.80924389  0.69115626  0.82274932     0.12400
H1145       H  0.85998649  0.70071358  0.86993603     0.12400
H1146       H  0.86709726  0.82020384  0.83830566     0.12400
C1147       C  0.66347831  0.78101762  0.80886688    -0.13800
C1148       C  0.67874320  0.74456902  0.80148749     0.08400
C1149       C  0.66463848  0.71309910  0.82263910    -0.13800
C1150       C  0.63513471  0.71763470  0.84954300    -0.13800
C1151       C  0.61903811  0.75379320  0.85629199     0.08400
C1152       C  0.63379052  0.78560417  0.83605738    -0.13800
H1153       H  0.67372770  0.80576482  0.79296468     0.12400
H1154       H  0.67651413  0.68478033  0.81855642     0.12400
H1155       H  0.62478411  0.69261570  0.86497885     0.12400
H1156       H  0.62190838  0.81382673  0.84072944     0.12400
C1157       C  0.70871857  0.82616458  0.68748188    -0.13800
C1158       C  0.74387050  0.80993279  0.70047030     0.08400
C1159       C  0.77971640  0.82435800  0.68723498    -0.13800
C1160       C  0.78043202  0.85421574  0.66045644    -0.13800
C1161       C  0.74522987  0.86978391  0.64636692     0.08400
C1162       C  0.70936575  0.85600292  0.66065966    -0.13800
H1163       H  0.68083829  0.81448654  0.69669889     0.12400
H1164       H  0.80703448  0.81124858  0.69628225     0.12400
H1165       H  0.80845464  0.86431369  0.64995765     0.12400
H1166       H  0.68179886  0.86755995  0.65035973     0.12400
C1167       C  0.78313087  0.65499309  0.68459393    -0.13800
C1168       C  0.74723710  0.66872802  0.69870743     0.08400
C1169       C  0.71223640  0.65344754  0.68384834    -0.13800
C1170       C  0.71308143  0.62368431  0.65783926    -0.13800
C1171       C  0.74892564  0.60915947  0.64509240     0.08400
C1172       C  0.78395566  0.62527217  0.65844397    -0.13800
H1173       H  0.81070367  0.66766024  0.69300786     0.12400
H1174       H  0.68399487  0.66492788  0.69163947     0.12400
H1175       H  0.68558743  0.61234487  0.64737347     0.12400
H1176       H  0.81204257  0.61512284  0.64845971     0.12400
loop_ 
_geom_bond_atom_site_label_1 
_geom_bond_atom_site_label_2 
_geom_bond_distance 
_geom_bond_site_symmetry_2 
_ccdc_geom_bond_type 
C1            C2   1.537       .  S
C1            C7   1.524       .  S
C1            C5   1.540       .  S
C1          C286   1.521       .  S
C2            H9   1.085       .  S
C2            C3   1.370       .  D
C3            C4   1.543       .  S
C3          C256   1.488       .  S
C4            C8   1.537       .  S
C4            C6   1.541       .  S
C4           H10   1.109       .  S
C5           H11   1.083       .  S
C5            C6   1.368       .  D
C6          C266   1.483       .  S
C7           H12   1.087       .  S
C7            C8   1.359       .  D
C8          C276   1.466       .  S
N13          N14   1.319       .  A
N13          N19   1.315       .  A
N13        Mn336   2.191   1_545  S
N14          C21   1.353       .  A
N15          N17   1.316       .  A
N15          N16   1.317       .  A
N15         Mn31   2.184       .  S
N16          C22   1.351       .  A
N17          N18   1.322       .  A
N17         Mn42   2.216       .  S
N18          C22   1.355       .  A
N19          N20   1.319       .  A
N19        Mn325   2.198   1_545  S
N20          C21   1.352       .  A
C21         C289   1.472       .  S
C22         C279   1.475       .  S
N23          N29   1.316       .  A
N23          N24   1.317       .  A
N23         Mn53   2.187       .  S
N24          C32   1.347       .  A
N25          N26   1.316       .  A
N25          N27   1.315       .  A
N25        Mn325   2.179   1_545  S
N26          C33   1.344       .  A
N27          N28   1.328       .  A
N27        Mn347   2.231   1_545  S
N28          C33   1.361       .  A
N29          N30   1.327       .  A
N29         Mn31   2.232       .  S
N30          C32   1.359       .  A
Mn31        N313   2.214       .  S
Mn31        N319   2.184       .  S
Mn31        Cl55   2.538       .  S
C32         C247   1.475       .  S
C33         C243   1.475       .  S
N34          N35   1.316       .  A
N34          N40   1.315       .  A
N34         Mn42   2.177       .  S
N35          C43   1.345       .  A
N36          N38   1.316       .  A
N36          N37   1.317       .  A
N36        Mn348   2.189   1_545  S
N37          C44   1.346       .  A
N38          N39   1.327       .  A
N38        Mn336   2.225   1_545  S
N39          C44   1.359       .  A
N40          N41   1.326       .  A
N40         Mn54   2.224       .  S
N41          C43   1.359       .  A
Mn42        N307   2.173       .  S
Mn42        N332   2.228       .  S
Mn42        Cl55   2.553       .  S
C43         C239   1.470       .  S
C44         C251   1.475       .  S
N45          N46   1.320       .  A
N45          N51   1.316       .  A
N45        Mn347   2.196   1_545  S
N46          C56   1.353       .  A
N47          N48   1.317       .  A
N47          N49   1.316       .  A
N47         Mn54   2.182       .  S
N48          C57   1.350       .  A
N49          N50   1.323       .  A
N49         Mn53   2.225       .  S
N50          C57   1.357       .  A
N51          N52   1.321       .  A
N51        Mn348   2.214   1_545  S
N52          C56   1.355       .  A
Mn53        N321   2.231       .  S
Mn53        N339   2.189       .  S
Mn53        Cl55   2.553       .  S
Mn54        N330   2.180       .  S
Mn54        N345   2.207       .  S
Mn54        Cl55   2.539       .  S
C56         C230   1.479       .  S
C57         C220   1.478       .  S
N58          C62   1.353   1_655  A
N58         C651   1.355       .  A
N58          H90   1.034       .  S
N59          C66   1.353       .  A
N59          C67   1.352       .  A
N60          C64   1.355       .  A
N60         C653   1.353   1_455  A
N60          H91   1.034       .  S
N61          C68   1.352       .  A
N61          C69   1.350       .  A
C62          C70   1.387       .  A
C62          C78   1.417       .  A
C63         N646   1.353       .  A
C63          C79   1.417       .  A
C63          C71   1.386       .  A
C64          C72   1.387       .  A
C64          C81   1.421       .  A
C65         N648   1.354       .  A
C65          C80   1.421       .  A
C65          C73   1.388       .  A
C66          C78   1.417       .  A
C66          C74   1.386       .  A
C67          C81   1.417       .  A
C67          C75   1.386       .  A
C68          C76   1.386       .  A
C68          C79   1.415       .  A
C69          C77   1.387       .  A
C69          C80   1.414       .  A
C70         C659   1.373   1_455  A
C70          H82   1.081       .  S
C71         C658   1.373       .  A
C71          H83   1.081       .  S
C72         C661   1.373   1_455  A
C72          H84   1.082       .  S
C73         C660   1.373       .  A
C73          H85   1.082       .  S
C74          C75   1.378       .  A
C74          H86   1.082       .  S
C75          H87   1.082       .  S
C76          C77   1.378       .  A
C76          H88   1.082       .  S
C77          H89   1.082       .  S
C78         C244   1.489       .  S
C79         C252   1.489       .  S
C80         C240   1.488       .  S
C81         C248   1.493       .  S
C92          C93   1.536       .  S
C92          C98   1.526       .  S
C92          C96   1.536       .  S
C92         C233   1.529       .  S
C93         H100   1.085       .  S
C93          C94   1.375       .  D
C94          C95   1.550       .  S
C94         C210   1.499       .  S
C95          C99   1.542       .  S
C95          C97   1.550       .  S
C95         H101   1.109       .  S
C96         H102   1.082       .  S
C96          C97   1.370       .  D
C97         C200   1.496       .  S
C98         H103   1.087       .  S
C98          C99   1.357       .  D
C99         C223   1.471       .  S
N104        C109   1.353       .  A
N104        C108   1.353       .  A
N104        H136   1.032   1_556  S
N105        C113   1.353       .  A
N105        C406   1.352   1_554  A
N106        C111   1.354       .  A
N106        C110   1.353       .  A
N106        H137   1.036       .  S
N107        C115   1.351       .  A
N107        C408   1.352       .  A
C108        C116   1.388       .  A
C108        C124   1.418       .  A
C109        C125   1.417       .  A
C109        C117   1.387       .  A
C110        C118   1.386       .  A
C110        C127   1.415       .  A
C111        C126   1.418       .  A
C111        C119   1.388       .  A
C112        N399   1.353       .  A
C112        C124   1.420   1_554  A
C112        C120   1.389       .  A
C113        C127   1.416       .  A
C113        C121   1.386       .  A
C114        N401   1.353       .  A
C114        C122   1.387       .  A
C114        C125   1.418   1_554  A
C115        C123   1.386       .  A
C115        C126   1.413       .  A
C116        C117   1.378       .  A
C116        H128   1.082       .  S
C117        H129   1.082       .  S
C118        C119   1.378       .  A
C118        H130   1.082   1_554  S
C119        H131   1.082       .  S
C120        C415   1.369   1_545  A
C120        H132   1.081       .  S
C121        C414   1.371       .  A
C121        H133   1.082       .  S
C122        C417   1.370   1_545  A
C122        H134   1.082       .  S
C123        C416   1.372       .  A
C123        H135   1.082       .  S
C124        C184   1.487       .  S
C125        C196   1.488       .  S
C126        C187   1.485       .  S
C127        C191   1.488       .  S
N138        N139   1.321       .  A
N138        N144   1.317   1_554  A
N138       Mn755   2.202       .  S
N139        C146   1.353   1_554  A
N140        N142   1.318   1_556  A
N140        N141   1.320       .  A
N140       Mn156   2.204       .  S
N141        C147   1.351       .  A
N142        N143   1.323       .  A
N142       Mn167   2.219       .  S
N143        C147   1.355   1_554  A
N144        N145   1.322       .  A
N144       Mn744   2.215       .  S
N145        C146   1.354       .  A
C146        C188   1.476       .  S
C147        C192   1.475       .  S
N148        N154   1.316       .  A
N148        N149   1.316       .  A
N148       Mn178   2.191       .  S
N149        C157   1.351       .  A
N150        N151   1.324       .  A
N150        N152   1.316       .  A
N150       Mn744   2.215       .  S
N151        C158   1.356       .  A
N152        N153   1.317       .  A
N152       Mn766   2.194       .  S
N153        C158   1.351       .  A
N154        N155   1.325       .  A
N154       Mn156   2.216       .  S
N155        C157   1.357       .  A
Mn156       N732   2.201       .  S
Mn156       N738   2.210       .  S
Mn156      Cl180   2.548       .  S
C157        C259   1.479       .  S
C158        C269   1.479       .  S
N159        N160   1.326       .  A
N159        N165   1.316       .  A
N159       Mn167   2.219       .  S
N160        C168   1.356       .  A
N161        N163   1.316       .  A
N161        N162   1.319       .  A
N161       Mn767   2.202       .  S
N162        C169   1.351       .  A
N163        N164   1.327       .  A
N163       Mn755   2.228       .  S
N164        C169   1.357       .  A
N165        N166   1.317       .  A
N165       Mn179   2.194       .  S
N166        C168   1.350       .  A
Mn167       N726   2.211       .  S
Mn167       N751   2.226       .  S
Mn167      Cl180   2.555   1_554  S
C168        C203   1.474       .  S
C169        C213   1.480       .  S
N170        N171   1.323       .  A
N170        N176   1.315   1_556  A
N170       Mn766   2.210       .  S
N171        C181   1.355   1_556  A
N172        N173   1.318       .  A
N172        N174   1.315   1_554  A
N172       Mn179   2.187       .  S
N173        C182   1.348       .  A
N174        N175   1.324       .  A
N174       Mn178   2.215       .  S
N175        C182   1.356   1_556  A
N176        N177   1.319       .  A
N176       Mn767   2.196       .  S
N177        C181   1.351       .  A
Mn178       N740   2.198       .  S
Mn178       N758   2.203       .  S
Mn178      Cl180   2.547       .  S
Mn179       N749   2.172       .  S
Mn179       N764   2.196       .  S
Mn179      Cl180   2.535   1_554  S
C181        C195   1.474       .  S
C182        C183   1.471       .  S
C183        H185   1.087       .  S
C183        C184   1.340   1_554  D
C184        H186   1.086       .  S
C187        H189   1.086       .  S
C187        C188   1.343   1_554  D
C188        H190   1.087       .  S
C191        H193   1.086       .  S
C191        C192   1.342   1_554  D
C192        H194   1.087       .  S
C195        H197   1.087       .  S
C195        C196   1.342   1_554  D
C196        H198   1.086       .  S
C199        C200   1.409       .  A
C199        C204   1.393       .  A
C199        H205   1.082       .  S
C200        C201   1.408       .  A
C201        C202   1.407       .  A
C201        H206   1.080       .  S
C202        C203   1.404       .  A
C202        H207   1.083       .  S
C203        C204   1.399       .  A
C204        H208   1.084       .  S
C209        C210   1.407       .  A
C209        C214   1.394       .  A
C209        H215   1.082       .  S
C210        C211   1.410       .  A
C211        C212   1.410       .  A
C211        H216   1.080       .  S
C212        C213   1.406       .  A
C212        H217   1.083       .  S
C213        C214   1.400       .  A
C214        H218   1.083       .  S
C219        C220   1.404       .  A
C219        C224   1.399       .  A
C219        H225   1.083       .  S
C220        C221   1.408       .  A
C221        C222   1.398       .  A
C221        H226   1.083       .  S
C222        C223   1.399       .  A
C222        H227   1.083       .  S
C223        C224   1.403       .  A
C224        H228   1.083       .  S
C229        C230   1.402       .  A
C229        C234   1.399       .  A
C229        H235   1.083       .  S
C230        C231   1.403       .  A
C231        C232   1.398       .  A
C231        H236   1.083       .  S
C232        C233   1.409       .  A
C232        H237   1.083       .  S
C233        C234   1.412       .  A
C234        H238   1.078       .  S
C239        H241   1.087       .  S
C239        C240   1.338       .  D
C240        H242   1.086       .  S
C243        H245   1.087       .  S
C243        C244   1.338       .  D
C244        H246   1.086       .  S
C247        H249   1.087       .  S
C247        C248   1.342       .  D
C248        H250   1.086       .  S
C251        H253   1.087       .  S
C251        C252   1.338       .  D
C252        H254   1.086       .  S
C255        C256   1.407       .  A
C255        C260   1.405       .  A
C255        H261   1.082       .  S
C256        C257   1.405       .  A
C257        C258   1.391       .  A
C257        H262   1.082       .  S
C258        C259   1.403       .  A
C258        H263   1.083       .  S
C259        C260   1.406       .  A
C260        H264   1.083       .  S
C265        C266   1.405       .  A
C265        C270   1.403       .  A
C265        H271   1.083       .  S
C266        C267   1.404       .  A
C267        C268   1.394       .  A
C267        H272   1.083       .  S
C268        C269   1.404       .  A
C268        H273   1.083       .  S
C269        C270   1.406       .  A
C270        H274   1.083       .  S
C275        C276   1.400       .  A
C275        C280   1.394       .  A
C275        H281   1.084       .  S
C276        C277   1.401       .  A
C277        C278   1.399       .  A
C277        H282   1.083       .  S
C278        C279   1.405       .  A
C278        H283   1.083       .  S
C279        C280   1.405       .  A
C280        H284   1.083       .  S
C285        C286   1.409       .  A
C285        C290   1.394       .  A
C285        H291   1.082       .  S
C286        C287   1.409       .  A
C287        C288   1.396       .  A
C287        H292   1.080       .  S
C288        C289   1.402       .  A
C288        H293   1.083       .  S
C289        C290   1.401       .  A
C290        H294   1.083       .  S
C295        C296   1.537       .  S
C295        C301   1.525       .  S
C295        C299   1.534       .  S
C295        C580   1.519       .  S
C296        H303   1.085       .  S
C296        C297   1.371       .  D
C297        C298   1.543       .  S
C297        C550   1.480       .  S
C298        C302   1.537       .  S
C298        C300   1.548       .  S
C298        H304   1.109       .  S
C299        H305   1.084       .  S
C299        C300   1.369       .  D
C300        C560   1.494       .  S
C301        H306   1.087       .  S
C301        C302   1.357       .  D
C302        C570   1.468       .  S
N307        N308   1.317       .  A
N307        N313   1.315       .  A
N308        C315   1.349       .  A
N309        N311   1.316       .  A
N309        N310   1.319       .  A
N309       Mn325   2.189       .  S
N310        C316   1.352       .  A
N311        N312   1.321       .  A
N311       Mn336   2.215       .  S
N312        C316   1.354       .  A
N313        N314   1.320       .  A
N314        C315   1.355       .  A
C315        C583   1.470       .  S
C316        C573   1.474       .  S
N317        N323   1.316       .  A
N317        N318   1.316       .  A
N317       Mn347   2.185       .  S
N318        C326   1.346       .  A
N319        N320   1.316       .  A
N319        N321   1.316       .  A
N320        C327   1.346       .  A
N321        N322   1.328       .  A
N322        C327   1.360       .  A
N323        N324   1.327       .  A
N323       Mn325   2.226       .  S
N324        C326   1.360       .  A
Mn325      Cl349   2.545       .  S
C326        C541   1.474       .  S
C327        C537   1.476       .  S
N328        N329   1.316       .  A
N328        N334   1.316       .  A
N328       Mn336   2.179       .  S
N329        C337   1.345       .  A
N330        N332   1.315       .  A
N330        N331   1.316       .  A
N331        C338   1.345       .  A
N332        N333   1.327       .  A
N333        C338   1.360       .  A
N334        N335   1.328       .  A
N334       Mn348   2.238       .  S
N335        C337   1.361       .  A
Mn336      Cl349   2.547       .  S
C337        C533   1.473       .  S
C338        C545   1.474       .  S
N339        N340   1.319       .  A
N339        N345   1.315       .  A
N340        C350   1.352       .  A
N341        N342   1.321       .  A
N341        N343   1.317       .  A
N341       Mn348   2.200       .  S
N342        C351   1.354       .  A
N343        N344   1.321       .  A
N343       Mn347   2.216       .  S
N344        C351   1.353       .  A
N345        N346   1.320       .  A
N346        C350   1.354       .  A
Mn347      Cl349   2.544       .  S
Mn348      Cl349   2.549       .  S
C350        C524   1.475       .  S
C351        C514   1.478       .  S
N352        C945   1.355       .  A
N352        C356   1.353   1_655  A
N352        H384   1.035       .  S
N353        C360   1.352       .  A
N353        C361   1.351       .  A
N354        C947   1.351   1_455  A
N354        C358   1.355       .  A
N354        H385   1.036       .  S
N355        C362   1.352       .  A
N355        C363   1.352       .  A
C356        C364   1.387       .  A
C356        C372   1.418       .  A
C357        N940   1.352       .  A
C357        C373   1.419       .  A
C357        C365   1.388       .  A
C358        C366   1.388       .  A
C358        C375   1.419       .  A
C359        N942   1.354       .  A
C359        C374   1.421       .  A
C359        C367   1.389       .  A
C360        C372   1.415       .  A
C360        C368   1.387       .  A
C361        C375   1.414       .  A
C361        C369   1.386       .  A
C362        C370   1.387       .  A
C362        C373   1.417       .  A
C363        C371   1.386       .  A
C363        C374   1.417       .  A
C364        C953   1.373   1_455  A
C364        H376   1.081       .  S
C365        C952   1.374       .  A
C365        H377   1.081       .  S
C366        C955   1.375   1_455  A
C366        H378   1.082       .  S
C367        C954   1.374       .  A
C367        H379   1.082       .  S
C368        C369   1.378       .  A
C368        H380   1.082       .  S
C369        H381   1.082       .  S
C370        C371   1.378       .  A
C370        H382   1.082       .  S
C371        H383   1.082       .  S
C372        C538   1.490       .  S
C373        C546   1.489       .  S
C374        C534   1.492       .  S
C375        C542   1.491       .  S
C386        C387   1.535       .  S
C386        C392   1.527       .  S
C386        C390   1.537       .  S
C386        C527   1.526       .  S
C387        H394   1.085       .  S
C387        C388   1.373       .  D
C388        C389   1.549       .  S
C388        C504   1.493       .  S
C389        C393   1.541       .  S
C389        C391   1.546       .  S
C389        H395   1.108       .  S
C390        H396   1.081       .  S
C390        C391   1.370       .  D
C391        C494   1.496       .  S
C392        H397   1.087       .  S
C392        C393   1.359       .  D
C393        C517   1.476       .  S
N398        C403   1.353   1_554  A
N398        C402   1.351   1_554  A
N398        H430   1.035       .  S
N399        C407   1.353   1_545  A
N400        C405   1.354       .  A
N400        C404   1.354       .  A
N400        H431   1.034       .  S
N401        C409   1.352   1_545  A
C402        C410   1.388       .  A
C402        C418   1.415       .  A
C403        C419   1.416   1_556  A
C403        C411   1.387       .  A
C404        C412   1.387       .  A
C404        C421   1.417       .  A
C405        C420   1.417       .  A
C405        C413   1.387       .  A
C406        C418   1.416       .  A
C406        C414   1.387   1_556  A
C407        C421   1.416       .  A
C407        C415   1.385       .  A
C408        C416   1.387       .  A
C408        C419   1.414       .  A
C409        C417   1.386       .  A
C409        C420   1.417       .  A
C410        C411   1.378       .  A
C410        H422   1.082       .  S
C411        H423   1.082       .  S
C412        C413   1.376       .  A
C412        H424   1.082       .  S
C413        H425   1.082       .  S
C414        H426   1.082       .  S
C415        H427   1.082       .  S
C416        H428   1.082       .  S
C417        H429   1.082       .  S
C418        C478   1.481       .  S
C419        C490   1.485       .  S
C420        C481   1.486       .  S
C421        C485   1.488       .  S
N432        N433   1.321       .  A
N432        N438   1.317   1_554  A
N432      Mn1049   2.203       .  S
N433        C440   1.352   1_554  A
N434        N436   1.318   1_556  A
N434        N435   1.319       .  A
N434       Mn450   2.204       .  S
N435        C441   1.350   1_556  A
N436        N437   1.323       .  A
N436       Mn461   2.214       .  S
N437        C441   1.355       .  A
N438        N439   1.321       .  A
N438      Mn1038   2.210   1_455  S
N439        C440   1.352       .  A
C440        C482   1.472       .  S
C441        C486   1.472       .  S
N442        N448   1.316       .  A
N442        N443   1.316       .  A
N442       Mn472   2.193       .  S
N443        C451   1.350       .  A
N444        N445   1.324       .  A
N444        N446   1.316       .  A
N444      Mn1038   2.212   1_455  S
N445        C452   1.355       .  A
N446        N447   1.317       .  A
N446      Mn1060   2.195   1_455  S
N447        C452   1.350       .  A
N448        N449   1.326       .  A
N448       Mn450   2.217       .  S
N449        C451   1.357       .  A
Mn450      N1026   2.204       .  S
Mn450      N1032   2.215       .  S
Mn450      Cl474   2.556   1_556  S
C451        C553   1.479       .  S
C452        C563   1.470       .  S
N453        N454   1.323       .  A
N453        N459   1.315       .  A
N453       Mn461   2.208       .  S
N454        C462   1.354       .  A
N455        N457   1.316       .  A
N455        N456   1.318       .  A
N455      Mn1061   2.194       .  S
N456        C463   1.351       .  A
N457        N458   1.326       .  A
N457      Mn1049   2.231       .  S
N458        C463   1.359       .  A
N459        N460   1.317       .  A
N459       Mn473   2.192       .  S
N460        C462   1.350       .  A
Mn461      N1020   2.202       .  S
Mn461      N1045   2.227       .  S
Mn461      Cl474   2.550       .  S
C462        C497   1.468       .  S
C463        C507   1.486       .  S
N464        N465   1.321       .  A
N464        N470   1.315   1_556  A
N464      Mn1060   2.199   1_455  S
N465        C475   1.351       .  A
N466        N467   1.318       .  A
N466        N468   1.314   1_554  A
N466       Mn473   2.187       .  S
N467        C476   1.349       .  A
N468        N469   1.322       .  A
N468       Mn472   2.207       .  S
N469        C476   1.355   1_556  A
N470        N471   1.322       .  A
N470      Mn1061   2.209       .  S
N471        C475   1.355   1_554  A
Mn472      N1034   2.197       .  S
Mn472      N1052   2.204       .  S
Mn472      Cl474   2.541   1_556  S
Mn473      N1043   2.177       .  S
Mn473      N1058   2.196       .  S
Mn473      Cl474   2.540       .  S
C475        C489   1.476       .  S
C476        C477   1.469       .  S
C477        H479   1.087       .  S
C477        C478   1.339   1_554  D
C478        H480   1.086       .  S
C481        H483   1.086       .  S
C481        C482   1.343   1_554  D
C482        H484   1.087       .  S
C485        H487   1.086       .  S
C485        C486   1.342       .  D
C486        H488   1.087   1_554  S
C489        H491   1.087       .  S
C489        C490   1.341   1_556  D
C490        H492   1.086       .  S
C493        C494   1.410       .  A
C493        C498   1.393       .  A
C493        H499   1.081       .  S
C494        C495   1.409       .  A
C495        C496   1.403       .  A
C495        H500   1.081       .  S
C496        C497   1.401       .  A
C496        H501   1.083       .  S
C497        C498   1.398       .  A
C498        H502   1.084       .  S
C503        C504   1.406       .  A
C503        C508   1.395       .  A
C503        H509   1.083       .  S
C504        C505   1.407       .  A
C505        C506   1.407       .  A
C505        H510   1.082       .  S
C506        C507   1.407       .  A
C506        H511   1.083       .  S
C507        C508   1.405       .  A
C508        H512   1.083       .  S
C513        C514   1.404       .  A
C513        C518   1.399       .  A
C513        H519   1.083       .  S
C514        C515   1.406       .  A
C515        C516   1.401       .  A
C515        H520   1.083       .  S
C516        C517   1.401       .  A
C516        H521   1.083       .  S
C517        C518   1.403       .  A
C518        H522   1.083       .  S
C523        C524   1.400       .  A
C523        C528   1.395       .  A
C523        H529   1.083       .  S
C524        C525   1.403       .  A
C525        C526   1.398       .  A
C525        H530   1.083       .  S
C526        C527   1.408       .  A
C526        H531   1.083       .  S
C527        C528   1.412       .  A
C528        H532   1.078       .  S
C533        H535   1.088       .  S
C533        C534   1.340       .  D
C534        H536   1.086       .  S
C537        H539   1.087       .  S
C537        C538   1.339       .  D
C538        H540   1.086       .  S
C541        H543   1.087       .  S
C541        C542   1.340       .  D
C542        H544   1.086       .  S
C545        H547   1.087       .  S
C545        C546   1.338       .  D
C546        H548   1.086       .  S
C549        C550   1.406       .  A
C549        C554   1.406       .  A
C549        H555   1.083       .  S
C550        C551   1.401       .  A
C551        C552   1.392       .  A
C551        H556   1.083       .  S
C552        C553   1.404       .  A
C552        H557   1.083       .  S
C553        C554   1.407       .  A
C554        H558   1.083       .  S
C559        C560   1.409       .  A
C559        C564   1.404       .  A
C559        H565   1.081       .  S
C560        C561   1.410       .  A
C561        C562   1.393       .  A
C561        H566   1.081       .  S
C562        C563   1.398       .  A
C562        H567   1.084       .  S
C563        C564   1.402       .  A
C564        H568   1.083       .  S
C569        C570   1.399       .  A
C569        C574   1.398       .  A
C569        H575   1.083       .  S
C570        C571   1.403       .  A
C571        C572   1.397       .  A
C571        H576   1.083       .  S
C572        C573   1.403       .  A
C572        H577   1.083       .  S
C573        C574   1.406       .  A
C574        H578   1.083       .  S
C579        C580   1.408       .  A
C579        C584   1.398       .  A
C579        H585   1.081       .  S
C580        C581   1.410       .  A
C581        C582   1.391       .  A
C581        H586   1.082       .  S
C582        C583   1.398       .  A
C582        H587   1.083       .  S
C583        C584   1.405       .  A
C584        H588   1.083       .  S
C589        C590   1.543       .  S
C589        C595   1.527       .  S
C589        C593   1.533       .  S
C589        C874   1.525       .  S
C590        H597   1.082       .  S
C590        C591   1.369       .  D
C591        C592   1.539       .  S
C591        C844   1.484       .  S
C592        C596   1.542       .  S
C592        C594   1.546       .  S
C592        H598   1.110       .  S
C593        H599   1.086       .  S
C593        C594   1.369       .  D
C594        C854   1.489       .  S
C595        H600   1.087       .  S
C595        C596   1.359       .  D
C596        C864   1.473       .  S
N601        N602   1.317       .  A
N601        N607   1.316       .  A
N601       Mn924   2.184   1_545  S
N602        C609   1.350       .  A
N603        N605   1.316       .  A
N603        N604   1.320       .  A
N603       Mn619   2.195       .  S
N604        C610   1.353       .  A
N605        N606   1.323       .  A
N605       Mn630   2.220       .  S
N606        C610   1.356       .  A
N607        N608   1.322       .  A
N607       Mn913   2.213   1_545  S
N608        C609   1.355       .  A
C609        C877   1.473       .  S
C610        C867   1.483       .  S
N611        N617   1.316       .  A
N611        N612   1.316       .  A
N611       Mn641   2.184       .  S
N612        C620   1.345       .  A
N613        N614   1.316       .  A
N613        N615   1.315       .  A
N613       Mn913   2.180   1_545  S
N614        C621   1.345       .  A
N615        N616   1.329       .  A
N615       Mn935   2.234   1_545  S
N616        C621   1.361       .  A
N617        N618   1.326       .  A
N617       Mn619   2.225       .  S
N618        C620   1.359       .  A
Mn619       N901   2.208       .  S
Mn619       N907   2.182       .  S
Mn619      Cl643   2.548       .  S
C620        C835   1.472       .  S
C621        C831   1.474       .  S
N622        N623   1.316       .  A
N622        N628   1.316       .  A
N622       Mn630   2.183       .  S
N623        C631   1.345       .  A
N624        N626   1.316       .  A
N624        N625   1.316       .  A
N624       Mn936   2.181   1_545  S
N625        C632   1.345       .  A
N626        N627   1.327       .  A
N626       Mn924   2.230   1_545  S
N627        C632   1.360       .  A
N628        N629   1.327       .  A
N628       Mn642   2.232       .  S
N629        C631   1.360       .  A
Mn630       N895   2.189       .  S
Mn630       N920   2.234       .  S
Mn630      Cl643   2.546       .  S
C631        C827   1.474       .  S
C632        C839   1.472       .  S
N633        N634   1.318       .  A
N633        N639   1.316       .  A
N633       Mn935   2.189   1_545  S
N634        C644   1.351       .  A
N635        N636   1.319       .  A
N635        N637   1.316       .  A
N635       Mn642   2.192       .  S
N636        C645   1.353       .  A
N637        N638   1.321       .  A
N637       Mn641   2.212       .  S
N638        C645   1.354       .  A
N639        N640   1.322       .  A
N639       Mn936   2.218   1_545  S
N640        C644   1.356       .  A
Mn641       N909   2.227       .  S
Mn641       N927   2.188       .  S
Mn641      Cl643   2.544       .  S
Mn642       N918   2.184       .  S
Mn642       N933   2.213       .  S
Mn642      Cl643   2.548       .  S
C644        C818   1.477       .  S
C645        C808   1.477       .  S
N646        C650   1.355       .  A
N646        H678   1.033       .  S
N647        C654   1.352       .  A
N647        C655   1.352       .  A
N648        C652   1.352       .  A
N648        H679   1.033       .  S
N649        C656   1.351       .  A
N649        C657   1.352       .  A
C650        C658   1.388       .  A
C650        C666   1.422       .  A
C651        C667   1.422       .  A
C651        C659   1.389       .  A
C652        C660   1.387       .  A
C652        C669   1.417       .  A
C653        C668   1.419       .  A
C653        C661   1.388       .  A
C654        C666   1.417       .  A
C654        C662   1.386       .  A
C655        C669   1.416       .  A
C655        C663   1.386       .  A
C656        C664   1.387       .  A
C656        C667   1.416       .  A
C657        C665   1.386       .  A
C657        C668   1.415       .  A
C658        H670   1.082       .  S
C659        H671   1.082       .  S
C660        H672   1.082       .  S
C661        H673   1.080       .  S
C662        C663   1.378       .  A
C662        H674   1.082       .  S
C663        H675   1.082       .  S
C664        C665   1.378       .  A
C664        H676   1.082       .  S
C665        H677   1.082       .  S
C666        C832   1.495       .  S
C667        C840   1.492       .  S
C668        C828   1.489       .  S
C669        C836   1.487       .  S
C680        C681   1.539       .  S
C680        C686   1.526       .  S
C680        C684   1.538       .  S
C680        C821   1.525       .  S
C681        H688   1.086       .  S
C681        C682   1.372       .  D
C682        C683   1.540       .  S
C682        C798   1.483       .  S
C683        C687   1.536       .  S
C683        C685   1.541       .  S
C683        H689   1.109       .  S
C684        H690   1.083       .  S
C684        C685   1.369       .  D
C685        C788   1.487       .  S
C686        H691   1.087       .  S
C686        C687   1.359       .  D
C687        C811   1.468       .  S
N692        C697   1.355       .  A
N692        C696   1.354       .  A
N692        H724   1.033   1_556  S
N693        C994   1.353       .  A
N693        C701   1.355       .  A
N694        C699   1.354       .  A
N694        C698   1.355       .  A
N694        H725   1.034   1_554  S
N695        C996   1.353       .  A
N695        C703   1.353       .  A
C696        C704   1.388       .  A
C696        C712   1.420       .  A
C697        C713   1.419       .  A
C697        C705   1.387       .  A
C698        C706   1.387       .  A
C698        C715   1.419       .  A
C699        C714   1.419       .  A
C699        C707   1.387       .  A
C700        N987   1.354       .  A
C700        C712   1.422   1_554  A
C700        C708   1.387       .  A
C701        C715   1.419   1_556  A
C701        C709   1.387       .  A
C702        N989   1.353       .  A
C702        C710   1.388       .  A
C702        C713   1.419   1_554  A
C703        C711   1.389       .  A
C703        C714   1.420   1_556  A
C704        C705   1.379       .  A
C704        H716   1.082       .  S
C705        H717   1.082       .  S
C706        C707   1.379       .  A
C706        H718   1.082       .  S
C707        H719   1.082       .  S
C708       C1003   1.369   1_545  A
C708        H720   1.082       .  S
C709       C1002   1.370       .  A
C709        H721   1.081       .  S
C710       C1005   1.369   1_545  A
C710        H722   1.082       .  S
C711       C1004   1.369       .  A
C711        H723   1.081       .  S
C712        C772   1.493       .  S
C713        C784   1.489       .  S
C714        C775   1.488       .  S
C715        C779   1.495       .  S
N726        N727   1.323       .  A
N726        N732   1.317   1_554  A
N727        C734   1.354   1_554  A
N728        N730   1.317   1_556  A
N728        N729   1.321       .  A
N728       Mn744   2.211   1_655  S
N729        C735   1.352       .  A
N730        N731   1.325       .  A
N730       Mn755   2.221   1_655  S
N731        C735   1.356   1_554  A
N732        N733   1.319       .  A
N733        C734   1.350       .  A
C734        C776   1.472       .  S
C735        C780   1.481       .  S
N736        N742   1.316       .  A
N736        N737   1.317       .  A
N736       Mn766   2.198   1_655  S
N737        C745   1.352       .  A
N738        N739   1.323       .  A
N738        N740   1.315       .  A
N739        C746   1.355       .  A
N740        N741   1.318       .  A
N741        C746   1.353       .  A
N742        N743   1.324       .  A
N742       Mn744   2.216   1_655  S
N743        C745   1.356       .  A
Mn744      Cl768   2.555   1_556  S
C745        C847   1.481       .  S
C746        C857   1.480       .  S
N747        N748   1.324       .  A
N747        N753   1.316       .  A
N747       Mn755   2.214   1_655  S
N748        C756   1.355       .  A
N749        N751   1.315       .  A
N749        N750   1.313       .  A
N750        C757   1.347       .  A
N751        N752   1.326       .  A
N752        C757   1.359       .  A
N753        N754   1.316       .  A
N753       Mn767   2.184   1_655  S
N754        C756   1.348       .  A
Mn755      Cl768   2.553       .  S
C756        C791   1.465       .  S
C757        C801   1.476       .  S
N758        N759   1.323       .  A
N758        N764   1.313   1_556  A
N759        C769   1.355   1_556  A
N760        N761   1.320       .  A
N760        N762   1.315   1_554  A
N760       Mn767   2.209   1_655  S
N761        C770   1.352       .  A
N762        N763   1.324       .  A
N762       Mn766   2.210   1_655  S
N763        C770   1.355   1_556  A
N764        N765   1.319       .  A
N765        C769   1.350       .  A
Mn766      Cl768   2.546   1_556  S
Mn767      Cl768   2.544       .  S
C769        C783   1.474       .  S
C770        C771   1.478       .  S
C771        H773   1.087       .  S
C771        C772   1.345   1_554  D
C772        H774   1.086       .  S
C775        H777   1.086       .  S
C775        C776   1.343   1_554  D
C776        H778   1.087       .  S
C779        H781   1.086       .  S
C779        C780   1.345   1_554  D
C780        H782   1.087       .  S
C783        H785   1.087       .  S
C783        C784   1.343   1_554  D
C784        H786   1.086       .  S
C787        C788   1.406       .  A
C787        C792   1.391       .  A
C787        H793   1.082       .  S
C788        C789   1.409       .  A
C789        C790   1.403       .  A
C789        H794   1.082       .  S
C790        C791   1.401       .  A
C790        H795   1.083       .  S
C791        C792   1.399       .  A
C792        H796   1.084       .  S
C797        C798   1.402       .  A
C797        C802   1.391       .  A
C797        H803   1.083       .  S
C798        C799   1.407       .  A
C799        C800   1.404       .  A
C799        H804   1.083       .  S
C800        C801   1.404       .  A
C800        H805   1.083       .  S
C801        C802   1.405       .  A
C802        H806   1.083       .  S
C807        C808   1.406       .  A
C807        C812   1.399       .  A
C807        H813   1.083       .  S
C808        C809   1.406       .  A
C809        C810   1.397       .  A
C809        H814   1.083       .  S
C810        C811   1.400       .  A
C810        H815   1.084       .  S
C811        C812   1.401       .  A
C812        H816   1.083       .  S
C817        C818   1.401       .  A
C817        C822   1.397       .  A
C817        H823   1.083       .  S
C818        C819   1.404       .  A
C819        C820   1.397       .  A
C819        H824   1.083       .  S
C820        C821   1.407       .  A
C820        H825   1.082       .  S
C821        C822   1.412       .  A
C822        H826   1.080       .  S
C827        H829   1.087       .  S
C827        C828   1.338       .  D
C828        H830   1.086       .  S
C831        H833   1.087       .  S
C831        C832   1.341       .  D
C832        H834   1.086       .  S
C835        H837   1.087       .  S
C835        C836   1.337       .  D
C836        H838   1.086       .  S
C839        H841   1.087       .  S
C839        C840   1.340       .  D
C840        H842   1.086       .  S
C843        C844   1.405       .  A
C843        C848   1.405       .  A
C843        H849   1.083       .  S
C844        C845   1.404       .  A
C845        C846   1.393       .  A
C845        H850   1.083       .  S
C846        C847   1.404       .  A
C846        H851   1.083       .  S
C847        C848   1.407       .  A
C848        H852   1.083       .  S
C853        C854   1.405       .  A
C853        C858   1.404       .  A
C853        H859   1.082       .  S
C854        C855   1.407       .  A
C855        C856   1.393       .  A
C855        H860   1.082       .  S
C856        C857   1.402       .  A
C856        H861   1.083       .  S
C857        C858   1.406       .  A
C858        H862   1.083       .  S
C863        C864   1.400       .  A
C863        C868   1.399       .  A
C863        H869   1.083       .  S
C864        C865   1.403       .  A
C865        C866   1.401       .  A
C865        H870   1.083       .  S
C866        C867   1.406       .  A
C866        H871   1.083       .  S
C867        C868   1.407       .  A
C868        H872   1.083       .  S
C873        C874   1.409       .  A
C873        C878   1.394       .  A
C873        H879   1.078       .  S
C874        C875   1.411       .  A
C875        C876   1.398       .  A
C875        H880   1.083       .  S
C876        C877   1.400       .  A
C876        H881   1.083       .  S
C877        C878   1.402       .  A
C878        H882   1.083       .  S
C883        C884   1.539       .  S
C883        C889   1.522       .  S
C883        C887   1.538       .  S
C883       C1168   1.522       .  S
C884        H891   1.085       .  S
C884        C885   1.371       .  D
C885        C886   1.540       .  S
C885       C1138   1.484       .  S
C886        C890   1.539       .  S
C886        C888   1.545       .  S
C886        H892   1.110       .  S
C887        H893   1.085       .  S
C887        C888   1.370       .  D
C888       C1148   1.488       .  S
C889        H894   1.087       .  S
C889        C890   1.357       .  D
C890       C1158   1.465       .  S
N895        N896   1.320       .  A
N895        N901   1.315       .  A
N896        C903   1.353       .  A
N897        N899   1.315       .  A
N897        N898   1.319       .  A
N897       Mn913   2.187       .  S
N898        C904   1.352       .  A
N899        N900   1.320       .  A
N899       Mn924   2.209       .  S
N900        C904   1.354       .  A
N901        N902   1.319       .  A
N902        C903   1.353       .  A
C903       C1171   1.475       .  S
C904       C1161   1.475       .  S
N905        N911   1.316       .  A
N905        N906   1.317       .  A
N905       Mn935   2.187       .  S
N906        C914   1.346       .  A
N907        N908   1.316       .  A
N907        N909   1.315       .  A
N908        C915   1.346       .  A
N909        N910   1.327       .  A
N910        C915   1.360       .  A
N911        N912   1.326       .  A
N911       Mn913   2.224       .  S
N912        C914   1.359       .  A
Mn913      Cl937   2.550       .  S
C914       C1129   1.475       .  S
C915       C1125   1.474       .  S
N916        N917   1.316       .  A
N916        N922   1.316       .  A
N916       Mn924   2.180       .  S
N917        C925   1.345       .  A
N918        N920   1.315       .  A
N918        N919   1.317       .  A
N919        C926   1.346       .  A
N920        N921   1.328       .  A
N921        C926   1.360       .  A
N922        N923   1.326       .  A
N922       Mn936   2.229       .  S
N923        C925   1.360       .  A
Mn924      Cl937   2.541       .  S
C925       C1121   1.472       .  S
C926       C1133   1.477       .  S
N927        N928   1.319       .  A
N927        N933   1.316       .  A
N928        C938   1.352       .  A
N929        N930   1.320       .  A
N929        N931   1.316       .  A
N929       Mn936   2.192       .  S
N930        C939   1.352       .  A
N931        N932   1.322       .  A
N931       Mn935   2.217       .  S
N932        C939   1.355       .  A
N933        N934   1.320       .  A
N934        C938   1.354       .  A
Mn935      Cl937   2.542       .  S
Mn936      Cl937   2.552       .  S
C938       C1112   1.475       .  S
C939       C1102   1.478       .  S
N940        C944   1.354       .  A
N940        H972   1.033       .  S
N941        C948   1.351       .  A
N941        C949   1.352       .  A
N942        C946   1.352       .  A
N942        H973   1.033       .  S
N943        C950   1.352       .  A
N943        C951   1.352       .  A
C944        C952   1.388       .  A
C944        C960   1.421       .  A
C945        C961   1.421       .  A
C945        C953   1.387       .  A
C946        C954   1.387       .  A
C946        C963   1.417       .  A
C947        C962   1.414       .  A
C947        C955   1.386       .  A
C948        C960   1.416       .  A
C948        C956   1.386       .  A
C949        C963   1.416       .  A
C949        C957   1.386       .  A
C950        C958   1.386       .  A
C950        C961   1.416       .  A
C951        C959   1.386       .  A
C951        C962   1.415       .  A
C952        H964   1.082       .  S
C953        H965   1.082       .  S
C954        H966   1.081       .  S
C955        H967   1.082       .  S
C956        C957   1.378       .  A
C956        H968   1.082       .  S
C957        H969   1.082       .  S
C958        C959   1.378       .  A
C958        H970   1.082       .  S
C959        H971   1.082       .  S
C960       C1126   1.490       .  S
C961       C1134   1.494       .  S
C962       C1122   1.485       .  S
C963       C1130   1.488       .  S
C974        C975   1.538       .  S
C974        C980   1.525       .  S
C974        C978   1.537       .  S
C974       C1115   1.527       .  S
C975        H982   1.086       .  S
C975        C976   1.372       .  D
C976        C977   1.544       .  S
C976       C1092   1.487       .  S
C977        C981   1.543       .  S
C977        C979   1.543       .  S
C977        H983   1.110       .  S
C978        H984   1.082       .  S
C978        C979   1.367       .  D
C979       C1082   1.490       .  S
C980        H985   1.087       .  S
C980        C981   1.360       .  D
C981       C1105   1.473       .  S
N986        C991   1.354       .  A
N986        C990   1.353       .  A
N986       H1018   1.034       .  S
N987        C995   1.354   1_545  A
N988        C993   1.353       .  A
N988        C992   1.355       .  A
N988       H1019   1.033       .  S
N989        C997   1.352   1_545  A
C990        C998   1.388       .  A
C990       C1006   1.417       .  A
C991       C1007   1.417       .  A
C991        C999   1.387       .  A
C992       C1000   1.387       .  A
C992       C1009   1.418       .  A
C993       C1008   1.417       .  A
C993       C1001   1.388       .  A
C994       C1006   1.419       .  A
C994       C1002   1.387       .  A
C995       C1009   1.420       .  A
C995       C1003   1.386       .  A
C996       C1004   1.385       .  A
C996       C1007   1.415       .  A
C997       C1005   1.386       .  A
C997       C1008   1.417       .  A
C998        C999   1.377       .  A
C998       H1010   1.082       .  S
C999       H1011   1.082       .  S
C1000      C1001   1.376       .  A
C1000      H1012   1.082       .  S
C1001      H1013   1.082       .  S
C1002      H1014   1.082       .  S
C1003      H1015   1.082       .  S
C1004      H1016   1.082       .  S
C1005      H1017   1.082       .  S
C1006      C1066   1.488       .  S
C1007      C1078   1.487       .  S
C1008      C1069   1.483       .  S
C1009      C1073   1.492       .  S
N1020      N1021   1.320       .  A
N1020      N1026   1.317   1_554  A
N1021      C1028   1.352   1_554  A
N1022      N1024   1.318   1_556  A
N1022      N1023   1.317       .  A
N1022     Mn1038   2.195       .  S
N1023      C1029   1.348   1_556  A
N1024      N1025   1.326       .  A
N1024     Mn1049   2.229   1_655  S
N1025      C1029   1.358       .  A
N1026      N1027   1.320       .  A
N1027      C1028   1.351       .  A
C1028      C1070   1.470       .  S
C1029      C1074   1.475   1_554  S
N1030      N1036   1.315       .  A
N1030      N1031   1.314       .  A
N1030     Mn1060   2.181       .  S
N1031      C1039   1.349       .  A
N1032      N1033   1.324       .  A
N1032      N1034   1.316       .  A
N1033      C1040   1.357       .  A
N1034      N1035   1.317       .  A
N1035      C1040   1.352       .  A
N1036      N1037   1.328       .  A
N1036     Mn1038   2.227       .  S
N1037      C1039   1.360       .  A
Mn1038    Cl1062   2.552   1_655  S
C1039      C1141   1.482       .  S
C1040      C1151   1.481       .  S
N1041      N1042   1.324       .  A
N1041      N1047   1.315       .  A
N1041     Mn1049   2.207   1_655  S
N1042      C1050   1.355       .  A
N1043      N1045   1.315       .  A
N1043      N1044   1.315       .  A
N1044      C1051   1.348       .  A
N1045      N1046   1.326       .  A
N1046      C1051   1.359       .  A
N1047      N1048   1.318       .  A
N1047     Mn1061   2.205   1_655  S
N1048      C1050   1.353       .  A
Mn1049    Cl1062   2.558   1_554  S
C1050      C1085   1.482       .  S
C1051      C1095   1.479       .  S
N1052      N1053   1.323       .  A
N1052      N1058   1.314   1_556  A
N1053      C1063   1.355   1_556  A
N1054      N1055   1.319       .  A
N1054      N1056   1.314   1_554  A
N1054     Mn1061   2.196   1_655  S
N1055      C1064   1.350       .  A
N1056      N1057   1.322       .  A
N1056     Mn1060   2.205       .  S
N1057      C1064   1.354   1_556  A
N1058      N1059   1.319       .  A
N1059      C1063   1.350       .  A
Mn1060    Cl1062   2.543   1_655  S
Mn1061    Cl1062   2.541   1_554  S
C1063      C1077   1.474       .  S
C1064      C1065   1.471       .  S
C1065      H1067   1.087       .  S
C1065      C1066   1.342   1_554  D
C1066      H1068   1.086       .  S
C1069      H1071   1.086       .  S
C1069      C1070   1.341   1_554  D
C1070      H1072   1.087       .  S
C1073      H1075   1.086       .  S
C1073      C1074   1.341   1_554  D
C1074      H1076   1.087       .  S
C1077      H1079   1.087       .  S
C1077      C1078   1.341   1_554  D
C1078      H1080   1.086       .  S
C1081      C1082   1.406       .  A
C1081      C1086   1.391       .  A
C1081      H1087   1.083       .  S
C1082      C1083   1.406       .  A
C1083      C1084   1.408       .  A
C1083      H1088   1.083       .  S
C1084      C1085   1.409       .  A
C1084      H1089   1.083       .  S
C1085      C1086   1.401       .  A
C1086      H1090   1.083       .  S
C1091      C1092   1.404       .  A
C1091      C1096   1.392       .  A
C1091      H1097   1.083       .  S
C1092      C1093   1.407       .  A
C1093      C1094   1.405       .  A
C1093      H1098   1.082       .  S
C1094      C1095   1.405       .  A
C1094      H1099   1.083       .  S
C1095      C1096   1.405       .  A
C1096      H1100   1.083       .  S
C1101      C1102   1.404       .  A
C1101      C1106   1.399       .  A
C1101      H1107   1.083       .  S
C1102      C1103   1.407       .  A
C1103      C1104   1.399       .  A
C1103      H1108   1.083       .  S
C1104      C1105   1.400       .  A
C1104      H1109   1.083       .  S
C1105      C1106   1.404       .  A
C1106      H1110   1.083       .  S
C1111      C1112   1.400       .  A
C1111      C1116   1.395       .  A
C1111      H1117   1.083       .  S
C1112      C1113   1.403       .  A
C1113      C1114   1.398       .  A
C1113      H1118   1.083       .  S
C1114      C1115   1.409       .  A
C1114      H1119   1.083       .  S
C1115      C1116   1.412       .  A
C1116      H1120   1.078       .  S
C1121      H1123   1.087       .  S
C1121      C1122   1.336       .  D
C1122      H1124   1.086       .  S
C1125      H1127   1.087       .  S
C1125      C1126   1.339       .  D
C1126      H1128   1.086       .  S
C1129      H1131   1.087       .  S
C1129      C1130   1.338       .  D
C1130      H1132   1.086       .  S
C1133      H1135   1.087       .  S
C1133      C1134   1.342       .  D
C1134      H1136   1.086       .  S
C1137      C1138   1.408       .  A
C1137      C1142   1.409       .  A
C1137      H1143   1.083       .  S
C1138      C1139   1.401       .  A
C1139      C1140   1.389       .  A
C1139      H1144   1.083       .  S
C1140      C1141   1.404       .  A
C1140      H1145   1.083       .  S
C1141      C1142   1.407       .  A
C1142      H1146   1.083       .  S
C1147      C1148   1.406       .  A
C1147      C1152   1.405       .  A
C1147      H1153   1.083       .  S
C1148      C1149   1.406       .  A
C1149      C1150   1.393       .  A
C1149      H1154   1.083       .  S
C1150      C1151   1.403       .  A
C1150      H1155   1.083       .  S
C1151      C1152   1.406       .  A
C1152      H1156   1.083       .  S
C1157      C1158   1.399       .  A
C1157      C1162   1.397       .  A
C1157      H1163   1.083       .  S
C1158      C1159   1.401       .  A
C1159      C1160   1.397       .  A
C1159      H1164   1.084       .  S
C1160      C1161   1.404       .  A
C1160      H1165   1.083       .  S
C1161      C1162   1.406       .  A
C1162      H1166   1.083       .  S
C1167      C1168   1.410       .  A
C1167      C1172   1.397       .  A
C1167      H1173   1.081       .  S
C1168      C1169   1.409       .  A
C1169      C1170   1.395       .  A
C1169      H1174   1.081       .  S
C1170      C1171   1.401       .  A
C1170      H1175   1.083       .  S
C1171      C1172   1.403       .  A
C1172      H1176   1.083       .  S
