geometry optimzed in LAMMPS
_audit_creation_date              2020-12-01 
_audit_creation_method            'lammps2cif' 
_symmetry_space_group_name_H-M    'P1' 
_symmetry_Int_Tables_number       1 
_symmetry_cell_setting            triclinic 
loop_ 
_symmetry_equiv_pos_as_xyz 
  x,y,z 
_cell_length_a                    104.02648623 
_cell_length_b                    104.07372296546569 
_cell_length_c                    42.15402231211525 
_cell_angle_alpha                 90.24927875667183 
_cell_angle_beta                  89.66518433427773 
_cell_angle_gamma                 120.31516898502832 
loop_ 
_atom_site_label 
_atom_site_type_symbol 
_atom_site_fract_x 
_atom_site_fract_y 
_atom_site_fract_z 
_atom_site_charge 
In1        In  0.73893045  0.91997368  0.44543056     1.36900
C2          C  0.74213693  0.90409867  0.48960930     0.77800
O3          O  0.72642513  0.92520244  0.48152112    -0.60600
O4          O  0.71399019  0.90886879  0.44642560    -0.51500
C5          C  0.75276381  0.94832736  0.42762504     0.70500
O6          O  0.75707934  0.94389393  0.45097435    -0.46400
C7          C  0.74575270  0.90827083  0.39696994     0.75200
O8          O  0.75180797  0.91770388  0.48556134    -0.58300
O9          O  0.73362782  0.90833121  0.39835803    -0.48300
O10         O  0.73126194  0.89885055  0.47085654    -0.54700
C11         C  0.71375622  0.91554566  0.47141232     0.85400
O12         O  0.74124528  0.93821048  0.41419015    -0.56600
O13         O  0.75441978  0.91453069  0.41996064    -0.59900
In14       In  0.60071112  0.85205386  0.14460921     1.36900
C15         C  0.59524703  0.82907597  0.10778425     0.77800
O16         O  0.61024349  0.86486471  0.09958425    -0.60600
O17         O  0.62441255  0.87069194  0.13938766    -0.51500
C18         C  0.58485377  0.86465995  0.16254074     0.70500
O19         O  0.57973433  0.85363345  0.14387905    -0.46400
C20         C  0.60126818  0.83831208  0.19716147     0.75200
O21         O  0.58734933  0.83516190  0.10645041    -0.58300
O22         O  0.61295954  0.84869339  0.18455981    -0.48300
O23         O  0.60562902  0.83474581  0.12766529    -0.54700
C24         C  0.62322339  0.87276766  0.11028879     0.85400
O25         O  0.59802687  0.86918429  0.17140020    -0.56600
O26         O  0.58931531  0.83573841  0.18403575    -0.59900
In27       In  0.73972001  0.81583566  0.19721744     1.36900
C28         C  0.74577781  0.83634862  0.24097428     0.77800
O29         O  0.75209539  0.83652898  0.16870303    -0.60600
O30         O  0.73077744  0.81996284  0.15251402    -0.51500
C31         C  0.75528949  0.80372311  0.17556687     0.70500
O32         O  0.75898760  0.81179428  0.20008971    -0.46400
C33         C  0.71513258  0.79484816  0.22529598     0.75200
O34         O  0.75487663  0.83202929  0.23436916    -0.58300
O35         O  0.71497470  0.80151265  0.20050060    -0.48300
O36         O  0.73380463  0.82996958  0.22558508    -0.54700
C37         C  0.74196466  0.83276399  0.14839887     0.85400
O38         O  0.74333159  0.80148686  0.16312472    -0.56600
O39         O  0.72797359  0.79798949  0.23410133    -0.59900
In40       In  0.60092383  0.74629707  0.39568023     1.36900
C41         C  0.59846977  0.76416651  0.35436124     0.77800
O42         O  0.58725535  0.75177754  0.42759617    -0.60600
O43         O  0.60895515  0.75793336  0.44299172    -0.51500
C44         C  0.58481228  0.71744593  0.40977562     0.70500
O45         O  0.57975169  0.72389820  0.39290626    -0.46400
C46         C  0.62505917  0.74940917  0.36638632     0.75200
O47         O  0.58971253  0.75020428  0.35396423    -0.58300
O48         O  0.62545717  0.75438091  0.39401618    -0.48300
O49         O  0.60796240  0.76865634  0.37628716    -0.54700
C50         C  0.59705723  0.75807804  0.44861518     0.85400
O51         O  0.59803304  0.72574660  0.41890888    -0.56600
O52         O  0.61210473  0.74193061  0.35506866    -0.59900
In53       In  0.74410302  0.14400132  0.11222337     1.36900
C54         C  0.75982462  0.16524096  0.15426832     0.77800
O55         O  0.74050526  0.12834840  0.15195660    -0.60600
O56         O  0.75432134  0.12951621  0.11370227    -0.51500
C57         C  0.71571421  0.12992060  0.09375139     0.70500
O58         O  0.72072210  0.14011125  0.11443343    -0.46400
C59         C  0.75716289  0.16062679  0.06162914     0.75200
O60         O  0.74571851  0.15823958  0.15453115    -0.58300
O61         O  0.75735359  0.14878931  0.06723241    -0.48300
O62         O  0.76553286  0.16150546  0.13230575    -0.54700
C63         C  0.74932431  0.12443758  0.14096485     0.85400
O64         O  0.72520078  0.12677274  0.08342283    -0.56600
O65         O  0.74943397  0.16320934  0.08091935    -0.59900
In66       In  0.81764739  0.08094035  0.31739943     1.36900
C67         C  0.83951699  0.09455842  0.27518738     0.77800
O68         O  0.80238220  0.07706769  0.27632796    -0.60600
O69         O  0.80332091  0.09135051  0.31312351    -0.51500
C70         C  0.80451600  0.05270206  0.33778577     0.70500
O71         O  0.81596763  0.05846186  0.32040303    -0.46400
C72         C  0.83219913  0.09596252  0.36882140     0.75200
O73         O  0.82965822  0.08101022  0.27241279    -0.58300
O74         O  0.82083081  0.09604116  0.35866594    -0.48300
O75         O  0.83850398  0.10074478  0.29995008    -0.54700
C76         C  0.79827527  0.08588139  0.28618783     0.85400
O77         O  0.79977575  0.06141939  0.34429314    -0.56600
O78         O  0.83537844  0.08743965  0.35358832    -0.59900
In79       In  0.92046541  0.18877053  0.07119631     1.36900
C80         C  0.90443150  0.16819261  0.02822558     0.77800
O81         O  0.91582458  0.16925296  0.10071819    -0.60600
O82         O  0.90684292  0.18264740  0.11577163    -0.51500
C83         C  0.94849100  0.20288862  0.09192683     0.70500
O84         O  0.94399773  0.19311999  0.07022853    -0.46400
C85         C  0.91710730  0.20979923  0.04423492     0.75200
O86         O  0.91854457  0.17516327  0.02723909    -0.58300
O87         O  0.91019247  0.20322362  0.06926300    -0.48300
O88         O  0.89892984  0.17193038  0.05057296    -0.54700
C89         C  0.90771079  0.17110709  0.12045447     0.85400
O90         O  0.93859585  0.20542087  0.10235481    -0.56600
O91         O  0.92631801  0.20618323  0.03441068    -0.59900
In92       In  0.85148663  0.24976404  0.36273021     1.36900
C93         C  0.83150011  0.23391009  0.40685076     0.77800
O94         O  0.83167943  0.24260749  0.33204700    -0.60600
O95         O  0.84585180  0.23404172  0.32124396    -0.51500
C96         C  0.86405556  0.27777350  0.34162741     0.70500
O97         O  0.85499153  0.27290922  0.36462569    -0.46400
C98         C  0.87399090  0.25009877  0.39294678     0.75200
O99         O  0.83381916  0.24658161  0.39849699    -0.58300
O100        O  0.86911727  0.24343911  0.36674825    -0.48300
O101        O  0.83940102  0.22961932  0.39287377    -0.54700
C102        C  0.83397822  0.23402915  0.31484191     0.85400
O103        O  0.86673043  0.26820295  0.32968095    -0.56600
O104        O  0.86794207  0.25737358  0.40217881    -0.59900
In105      In  0.41167934  0.93006333  0.03083269     1.36900
C106        C  0.42588779  0.92426640  0.07541952     0.77800
O107        O  0.41705343  0.91680682  0.49705498    -0.60600
O108        O  0.42814387  0.94019757  0.49051548    -0.51500
C109        C  0.38389382  0.91667080  0.00887175     0.70500
O110        O  0.38782998  0.91127317  0.03104946    -0.46400
C111        C  0.41327524  0.95322762  0.06136197     0.75200
O112        O  0.41287727  0.91457115  0.06688603    -0.58300
O113        O  0.41977653  0.95445139  0.03516707    -0.48300
O114        O  0.43140894  0.93641749  0.06072203    -0.54700
C115        C  0.42649195  0.92787365  0.48133155     0.85400
O116        O  0.39422793  0.92896593  0.49851334    -0.56600
O117        O  0.40509247  0.93996336  0.07057872    -0.59900
In118      In  0.47775380  0.06295962  0.22996396     1.36900
C119        C  0.49646603  0.06629364  0.18345873     0.77800
O120        O  0.49804021  0.07623720  0.25938122    -0.60600
O121        O  0.48359362  0.05372190  0.27199183    -0.51500
C122        C  0.46625740  0.07918407  0.25082658     0.70500
O123        O  0.47430120  0.08256394  0.22622210    -0.46400
C124        C  0.45412297  0.03933379  0.20581115     0.75200
O125        O  0.49430433  0.07674570  0.19179918    -0.58300
O126        O  0.46031207  0.03876882  0.23108848    -0.48300
O127        O  0.48904883  0.05437933  0.19875169    -0.54700
C128        C  0.49548997  0.06572081  0.27788466     0.85400
O129        O  0.46400631  0.06738722  0.26412848    -0.56600
O130        O  0.45952861  0.05222501  0.19431417    -0.59900
In131      In  0.51650353  0.92810979  0.27713195     1.36900
C132        C  0.49544704  0.92378955  0.31876735     0.77800
O133        O  0.53235942  0.93995833  0.31685840    -0.60600
O134        O  0.53247447  0.95270899  0.27755324    -0.51500
C135        C  0.53045924  0.91404285  0.25593925     0.70500
O136        O  0.52123704  0.90918898  0.27871662    -0.46400
C137        C  0.49820910  0.92328761  0.22949741     0.75200
O138        O  0.50107143  0.91542995  0.31823301    -0.58300
O139        O  0.50987158  0.93577475  0.23387324    -0.48300
O140        O  0.50096619  0.93421917  0.29888963    -0.54700
C141        C  0.53729844  0.95274370  0.30501679     0.85400
O142        O  0.53275144  0.92629373  0.24495305    -0.56600
O143        O  0.49669374  0.91313366  0.24803983    -0.59900
In144      In  0.58485506  0.06555661  0.47719762     1.36900
C145        C  0.56982582  0.07132705  0.43502283     0.77800
O146        O  0.58965941  0.05445992  0.43694914    -0.60600
O147        O  0.57611618  0.04098760  0.47464843    -0.51500
C148        C  0.61259469  0.07991555  0.99892554     0.70500
O149        O  0.60822248  0.08512317  0.47722718    -0.46400
C150        C  0.57038962  0.06849163  0.02596593     0.75200
O151        O  0.58393148  0.07851766  0.43519120    -0.58300
O152        O  0.56973201  0.05628749  0.01945724    -0.48300
O153        O  0.56381311  0.06150686  0.45611584    -0.54700
C154        C  0.58168216  0.04146464  0.44769364     0.85400
O155        O  0.60273581  0.06731245  0.00890527    -0.56600
O156        O  0.57926013  0.07929368  0.00877670    -0.59900
In157      In  0.81856836  0.73676598  0.05739653     1.36900
C158        C  0.83901661  0.74131626  0.01440945     0.77800
O159        O  0.83738163  0.75121311  0.08954877    -0.60600
O160        O  0.82532220  0.72797961  0.09875210    -0.51500
C161        C  0.80518007  0.75131739  0.07835497     0.70500
O162        O  0.81507174  0.75651579  0.05687825    -0.46400
C163        C  0.79768609  0.71251709  0.02849299     0.75200
O164        O  0.83256832  0.74890483  0.01453153    -0.58300
O165        O  0.80117036  0.71238286  0.05713349    -0.48300
O166        O  0.83525260  0.73202084  0.03660522    -0.54700
C167        C  0.83609873  0.74063117  0.10637522     0.85400
O168        O  0.80197612  0.73857741  0.08787234    -0.56600
O169        O  0.80403378  0.72522690  0.01585409    -0.59900
In170      In  0.74737107  0.59498535  0.36664029     1.36900
C171        C  0.76185866  0.58854720  0.40916236     0.77800
O172        O  0.75176695  0.58066199  0.33388265    -0.60600
O173        O  0.76318955  0.60384981  0.32511706    -0.51500
C174        C  0.71917530  0.58336592  0.34768812     0.70500
O175        O  0.72286872  0.57776705  0.36991360    -0.46400
C176        C  0.75164312  0.61891564  0.39827102     0.75200
O177        O  0.74836943  0.57932279  0.40256306    -0.58300
O178        O  0.75575704  0.61959296  0.36970569    -0.48300
O179        O  0.76760465  0.60048861  0.39354604    -0.54700
C180        C  0.76135736  0.59127604  0.31733819     0.85400
O181        O  0.72994549  0.59479912  0.33543878    -0.56600
O182        O  0.74460291  0.60595535  0.40967281    -0.59900
In183      In  0.92360788  0.73559773  0.30325995     1.36900
C184        C  0.90882137  0.74278596  0.26309247     0.77800
O185        O  0.92770134  0.72456829  0.26179817    -0.60600
O186        O  0.91528286  0.71112521  0.30064732    -0.51500
C187        C  0.95158240  0.74868232  0.32422775     0.70500
O188        O  0.94762713  0.75428716  0.30248350    -0.46400
C189        C  0.90878041  0.73795187  0.35236188     0.75200
O190        O  0.92286992  0.75057425  0.26521852    -0.58300
O191        O  0.90751989  0.72567980  0.34401424    -0.48300
O192        O  0.90285336  0.73133171  0.28021510    -0.54700
C193        C  0.92038360  0.71160965  0.27317635     0.85400
O194        O  0.94116685  0.73655679  0.33481487    -0.56600
O195        O  0.91849766  0.74900511  0.33700865    -0.59900
In196      In  0.85288424  0.59500350  0.11273072     1.36900
C197        C  0.83166086  0.58944296  0.15480252     0.77800
O198        O  0.86951741  0.60780980  0.15098303    -0.60600
O199        O  0.86725283  0.61980215  0.11292548    -0.51500
C200        C  0.86766411  0.58179184  0.09252548     0.70500
O201        O  0.85785203  0.57624305  0.11408258    -0.46400
C202        C  0.83517095  0.58963976  0.06348349     0.75200
O203        O  0.83858240  0.58230861  0.15504692    -0.58300
O204        O  0.84694285  0.60204646  0.06750724    -0.48300
O205        O  0.83601207  0.59941428  0.13393576    -0.54700
C206        C  0.87325827  0.62036709  0.13923331     0.85400
O207        O  0.87000861  0.59416384  0.08232133    -0.56600
O208        O  0.83303433  0.57982706  0.08365983    -0.59900
In209      In  0.41665666  0.47922232  0.27428229     1.36900
C210        C  0.43343094  0.50189772  0.31231831     0.77800
O211        O  0.41432933  0.46612850  0.31771109    -0.60600
O212        O  0.42598926  0.46389212  0.27865348    -0.51500
C213        C  0.38767347  0.46404568  0.26021294     0.70500
O214        O  0.39345922  0.47561607  0.27726719    -0.46400
C215        C  0.42805032  0.49440463  0.22103711     0.75200
O216        O  0.41934808  0.49486575  0.31438533    -0.58300
O217        O  0.42951530  0.48343899  0.22857298    -0.48300
O218        O  0.43859559  0.49740546  0.29066285    -0.54700
C219        C  0.42190488  0.46065150  0.30728575     0.85400
O220        O  0.39678469  0.46014843  0.25103110    -0.56600
O221        O  0.41994735  0.49671169  0.23977514    -0.59900
In222      In  0.48529386  0.41248630  0.48729940     1.36900
C223        C  0.50585030  0.42583879  0.44301240     0.77800
O224        O  0.46880857  0.40763709  0.44863842    -0.60600
O225        O  0.47265403  0.42468493  0.48126245    -0.51500
C226        C  0.47177835  0.38454219  0.00879316     0.70500
O227        O  0.48251586  0.38961521  0.48941681    -0.46400
C228        C  0.50169240  0.42681623  0.03711236     0.75200
O229        O  0.49671479  0.41199956  0.44196621    -0.58300
O230        O  0.48982213  0.42677854  0.03043476    -0.48300
O231        O  0.50492565  0.43235243  0.46732294    -0.54700
C232        C  0.46645104  0.41801866  0.45582945     0.85400
O233        O  0.46784308  0.39379302  0.01656717    -0.56600
O234        O  0.50449163  0.41869997  0.01940421    -0.59900
In235      In  0.52124796  0.58634029  0.02498550     1.36900
C236        C  0.49999831  0.56865333  0.06503065     0.77800
O237        O  0.50282066  0.57975589  0.49067034    -0.60600
O238        O  0.51680049  0.57047343  0.48431511    -0.51500
C239        C  0.53288847  0.61399524  0.50244235     0.70500
O240        O  0.52413887  0.60942149  0.02607969    -0.46400
C241        C  0.54298010  0.58681971  0.05898459     0.75200
O242        O  0.50235887  0.58158812  0.05885013    -0.58300
O243        O  0.54012655  0.58185573  0.03087602    -0.48300
O244        O  0.50833304  0.56502977  0.05063347    -0.54700
C245        C  0.50560163  0.57111986  0.47489496     0.85400
O246        O  0.53602308  0.60457250  0.49156210    -0.56600
O247        O  0.53562915  0.59278916  0.06825761    -0.59900
In248      In  0.58700347  0.52032920  0.23741944     1.36900
C249        C  0.57213749  0.49786157  0.19781559     0.77800
O250        O  0.58239421  0.50178532  0.27017126    -0.60600
O251        O  0.57082980  0.51345021  0.27812225    -0.51500
C252        C  0.61506375  0.53553368  0.25813386     0.70500
O253        O  0.61091246  0.52565780  0.23679793    -0.46400
C254        C  0.58288880  0.53985271  0.20540704     0.75200
O255        O  0.58624818  0.50465304  0.19909782    -0.58300
O256        O  0.57950614  0.53724365  0.23445886    -0.48300
O257        O  0.56609750  0.50301175  0.21578167    -0.54700
C258        C  0.57243231  0.50260138  0.28573207     0.85400
O259        O  0.60484198  0.53761492  0.26830034    -0.56600
O260        O  0.58914523  0.53323051  0.19368867    -0.59900
In261      In  0.14767540  0.74769350  0.14892167     1.36900
C262        C  0.16836879  0.76433410  0.10631259     0.77800
O263        O  0.13122122  0.74302223  0.11021032    -0.60600
O264        O  0.13264683  0.75725446  0.14789848    -0.51500
C265        C  0.13341853  0.71943647  0.16830800     0.70500
O266        O  0.14377191  0.72423574  0.14781001    -0.46400
C267        C  0.16405183  0.75959188  0.20035247     0.75200
O268        O  0.16189130  0.75024275  0.10576646    -0.58300
O269        O  0.15279050  0.76075316  0.19413051    -0.48300
O270        O  0.16449554  0.76957021  0.12899431    -0.54700
C271        C  0.12707581  0.75164787  0.12128413     0.85400
O272        O  0.13020138  0.72901159  0.17748578    -0.56600
O273        O  0.16655660  0.75198975  0.18053133    -0.59900
In274      In  0.08127529  0.81700682  0.44773115     1.36900
C275        C  0.09069286  0.83591271  0.49592430     0.77800
O276        O  0.07424976  0.79828354  0.48235782    -0.60600
O277        O  0.09330457  0.80438886  0.45383641    -0.51500
C278        C  0.05454611  0.80191318  0.42029620     0.70500
O279        O  0.05674995  0.80915189  0.44579327    -0.46400
C280        C  0.09854568  0.83631998  0.40358568     0.75200
O281        O  0.07904396  0.83298202  0.48081507    -0.58300
O282        O  0.09741925  0.82373936  0.40687720    -0.48300
O283        O  0.09699471  0.82891639  0.48685465    -0.54700
C284        C  0.08504910  0.79634357  0.47614134     0.85400
O285        O  0.06603979  0.80236975  0.40928479    -0.56600
O286        O  0.09065101  0.83882327  0.42248839    -0.59900
In287      In  0.25256437  0.85387815  0.39353154     1.36900
C288        C  0.23710284  0.83081475  0.35571804     0.77800
O289        O  0.24730846  0.83636383  0.42978935    -0.60600
O290        O  0.23693677  0.84934544  0.43458382    -0.51500
C291        C  0.28064507  0.86821758  0.41377182     0.70500
O292        O  0.27568581  0.85718562  0.39517045    -0.46400
C293        C  0.25006960  0.87360102  0.35781512     0.75200
O294        O  0.25120031  0.83759561  0.35621709    -0.58300
O295        O  0.24517953  0.87064635  0.38595368    -0.48300
O296        O  0.23125027  0.83597274  0.37417925    -0.54700
C297        C  0.23793561  0.83844342  0.44462350     0.85400
O298        O  0.27118941  0.87183880  0.42166983    -0.56600
O299        O  0.25685655  0.86702137  0.34892064    -0.59900
In300      In  0.18473547  0.92157762  0.19109482     1.36900
C301        C  0.16735569  0.90830253  0.24042933     0.77800
O302        O  0.16330929  0.91648597  0.16859645    -0.60600
O303        O  0.17570907  0.90762899  0.14724465    -0.51500
C304        C  0.20009902  0.94926924  0.16935540     0.70500
O305        O  0.19181092  0.94585922  0.19364954    -0.46400
C306        C  0.20542268  0.91625675  0.21298181     0.75200
O307        O  0.17204870  0.92190865  0.23464272    -0.58300
O308        O  0.19708356  0.90906414  0.18999127    -0.48300
O309        O  0.17140809  0.90185485  0.22089067    -0.54700
C310        C  0.16390292  0.90830488  0.14722775     0.85400
O311        O  0.20043809  0.93846271  0.15657803    -0.56600
O312        O  0.20397359  0.92693090  0.22284455    -0.59900
In313      In  0.15202703  0.40528963  0.40184955     1.36900
C314        C  0.17466133  0.41348074  0.36232152     0.77800
O315        O  0.17029863  0.41988387  0.43539240    -0.60600
O316        O  0.15840003  0.39667003  0.44424150    -0.51500
C317        C  0.13633625  0.41786698  0.42110785     0.70500
O318        O  0.14549552  0.42295204  0.39830966    -0.46400
C319        C  0.13241794  0.38077420  0.37029367     0.75200
O320        O  0.16725982  0.42010226  0.36280291    -0.58300
O321        O  0.13656489  0.38029127  0.39818218    -0.48300
O322        O  0.17032221  0.40284873  0.38153568    -0.54700
C323        C  0.16909586  0.40932346  0.45219264     0.85400
O324        O  0.13522666  0.40635458  0.43361416    -0.56600
O325        O  0.13789482  0.39376748  0.35952266    -0.59900
In326      In  0.08344080  0.27025992  0.18662553     1.36900
C327        C  0.10140203  0.26589396  0.22298204     0.77800
O328        O  0.08740901  0.25603948  0.15302197    -0.60600
O329        O  0.09586208  0.27874563  0.14077077    -0.51500
C330        C  0.05479362  0.25526158  0.17086779     0.70500
O331        O  0.06027403  0.25052159  0.19123826    -0.46400
C332        C  0.08784824  0.29399477  0.21966809     0.75200
O333        O  0.08737167  0.25777841  0.22538395    -0.58300
O334        O  0.09266058  0.29492034  0.19166612    -0.48300
O335        O  0.10586209  0.27589638  0.20220741    -0.54700
C336        C  0.09494850  0.26645540  0.13375336     0.85400
O337        O  0.06400783  0.26785666  0.15953975    -0.56600
O338        O  0.07956280  0.28082477  0.22923474    -0.59900
In339      In  0.25493761  0.40280805  0.15483873     1.36900
C340        C  0.23993497  0.41002791  0.11466215     0.77800
O341        O  0.25892085  0.39098542  0.11514188    -0.60600
O342        O  0.24355818  0.37798759  0.15130457    -0.51500
C343        C  0.28294657  0.41443923  0.17438188     0.70500
O344        O  0.27930749  0.42034174  0.15266937    -0.46400
C345        C  0.24282984  0.40676854  0.20629402     0.75200
O346        O  0.25404690  0.41694775  0.11488039    -0.58300
O347        O  0.24095212  0.39421903  0.19834374    -0.48300
O348        O  0.23386611  0.39969052  0.13464865    -0.54700
C349        C  0.24948948  0.37818385  0.12498077     0.85400
O350        O  0.27224461  0.40263874  0.18560060    -0.56600
O351        O  0.25178964  0.41745910  0.18887971    -0.59900
In352      In  0.18845829  0.27182928  0.43560760     1.36900
C353        C  0.16534212  0.26495116  0.47326870     0.77800
O354        O  0.20268969  0.28135105  0.47840952    -0.60600
O355        O  0.20457037  0.29636792  0.44255906    -0.51500
C356        C  0.20169338  0.25673871  0.41775589     0.70500
O357        O  0.19055384  0.25140409  0.43610443    -0.46400
C358        C  0.17463089  0.27108581  0.38251125     0.75200
O359        O  0.17231336  0.25791941  0.47449256    -0.58300
O360        O  0.18566665  0.28291271  0.39287223    -0.48300
O361        O  0.17034439  0.27528961  0.45322119    -0.54700
C362        C  0.20844669  0.29473698  0.46987558     0.85400
O363        O  0.20611464  0.26990824  0.40895642    -0.56600
O364        O  0.17142866  0.25957349  0.39834594    -0.59900
In365      In  0.26257773  0.18521900  0.30938708     1.36900
C366        C  0.25728569  0.16399784  0.26737530     0.77800
O367        O  0.27409680  0.20141421  0.27004439    -0.60600
O368        O  0.28716277  0.20154272  0.30862804    -0.51500
C369        C  0.24881213  0.19936742  0.33052808     0.70500
O370        O  0.24358640  0.18982248  0.30845228    -0.46400
C371        C  0.25843617  0.16793669  0.35859509     0.75200
O372        O  0.24985245  0.17060354  0.26744334    -0.58300
O373        O  0.27116164  0.17861258  0.35101959    -0.48300
O374        O  0.26727436  0.16848255  0.28816304    -0.54700
C375        C  0.28692049  0.20677282  0.28176689     0.85400
O376        O  0.26102181  0.20154214  0.34144976    -0.56600
O377        O  0.24785426  0.16663832  0.34173982    -0.59900
In378      In  0.40191485  0.25227017  0.12060425     1.36900
C379        C  0.40803886  0.23959423  0.16796930     0.77800
O380        O  0.39071109  0.25886500  0.15727201    -0.60600
O381        O  0.37729885  0.24385510  0.12129438    -0.51500
C382        C  0.41703124  0.28022185  0.09918780     0.70500
O383        O  0.42061203  0.27595011  0.12380121    -0.46400
C384        C  0.40460590  0.23612580  0.07454270     0.75200
O385        O  0.41770669  0.25204352  0.15680236    -0.58300
O386        O  0.39247763  0.23579408  0.07998585    -0.48300
O387        O  0.39548391  0.23385190  0.15489443    -0.54700
C388        C  0.37775885  0.25062805  0.14663727     0.85400
O389        O  0.40559998  0.27007805  0.08557512    -0.56600
O390        O  0.41512517  0.24495457  0.09212051    -0.59900
In391      In  0.26288258  0.08053032  0.05494251     1.36900
C392        C  0.25523509  0.09497711  0.01506946     0.77800
O393        O  0.24897317  0.08496828  0.08874550    -0.60600
O394        O  0.27215286  0.09532531  0.09774260    -0.51500
C395        C  0.25000129  0.05239989  0.07460008     0.70500
O396        O  0.24427836  0.05668057  0.05386755    -0.46400
C397        C  0.28683842  0.08549054  0.02188676     0.75200
O398        O  0.24810972  0.08089551  0.01630330    -0.58300
O399        O  0.28765152  0.09067804  0.04945121    -0.48300
O400        O  0.26593998  0.10124976  0.03414393    -0.54700
C401        C  0.25975662  0.09390730  0.10579004     0.85400
O402        O  0.26244897  0.06256356  0.08460716    -0.56600
O403        O  0.27373075  0.07699441  0.01243576    -0.59900
In404      In  0.40574152  0.14949497  0.36497522     1.36900
C405        C  0.41067940  0.16878043  0.41099578     0.77800
O406        O  0.42131056  0.17001071  0.33807673    -0.60600
O407        O  0.39928638  0.15625625  0.32060275    -0.51500
C408        C  0.41869777  0.13464227  0.34396086     0.70500
O409        O  0.42429278  0.14420750  0.36593433    -0.46400
C410        C  0.37923724  0.12972624  0.38768227     0.75200
O411        O  0.41685356  0.16094351  0.41108296    -0.58300
O412        O  0.38093278  0.13658185  0.36202156    -0.48300
O413        O  0.40252493  0.16678179  0.38739449    -0.54700
C414        C  0.41168157  0.16811976  0.31762429     0.85400
O415        O  0.40654391  0.13274044  0.33359963    -0.56600
O416        O  0.39124857  0.13215400  0.40025087    -0.59900
In417      In  0.93014160  0.40984844  0.22936575     1.36900
C418        C  0.92833493  0.42806823  0.18860462     0.77800
O419        O  0.91810673  0.41746626  0.26064956    -0.60600
O420        O  0.94093096  0.42525612  0.27065825    -0.51500
C421        C  0.91420653  0.38243972  0.25244595     0.70500
O422        O  0.90967526  0.38693720  0.22953321    -0.46400
C423        C  0.95066377  0.40874689  0.19426156     0.75200
O424        O  0.91752476  0.41489904  0.19268753    -0.58300
O425        O  0.95346006  0.41426251  0.22196335    -0.48300
O426        O  0.93954138  0.43153762  0.20559786    -0.54700
C427        C  0.92931300  0.42580470  0.27737821     0.85400
O428        O  0.92689899  0.39190800  0.26281808    -0.56600
O429        O  0.93713935  0.40249381  0.18641143    -0.59900
In430      In  0.05996804  0.47542641  0.01645388     1.36900
C431        C  0.06440943  0.49682409  0.05675383     0.77800
O432        O  0.07302863  0.49395547  0.48263646    -0.60600
O433        O  0.05027201  0.47940600  0.47194339    -0.51500
C434        C  0.07566455  0.46251032  0.50127810     0.70500
O435        O  0.08036481  0.47332931  0.02037603    -0.46400
C436        C  0.03797895  0.45436438  0.05061079     0.75200
O437        O  0.07426764  0.49340809  0.05103230    -0.58300
O438        O  0.03594757  0.45724474  0.02252039    -0.48300
O439        O  0.05237332  0.48924488  0.04186878    -0.54700
C440        C  0.06241170  0.49087177  0.46410570     0.85400
O441        O  0.06293815  0.45836145  0.49000934    -0.56600
O442        O  0.05131869  0.46143639  0.05977525    -0.59900
In443      In  0.93641520  0.51914171  0.48139132     1.36900
C444        C  0.93211001  0.49868579  0.43861438     0.77800
O445        O  0.94723287  0.53586269  0.44297065    -0.60600
O446        O  0.96112320  0.53488119  0.47849775    -0.51500
C447        C  0.92216535  0.53303272  0.99973451     0.70500
O448        O  0.91734139  0.52334241  0.47797519    -0.46400
C449        C  0.93183311  0.50179836  0.03094371     0.75200
O450        O  0.92344885  0.50389801  0.44081886    -0.58300
O451        O  0.94400003  0.51385931  0.02686941    -0.48300
O452        O  0.94274517  0.50410411  0.45798579    -0.54700
C453        C  0.96029802  0.54067019  0.45280785     0.85400
O454        O  0.93429942  0.53551085  0.01172954    -0.56600
O455        O  0.92190088  0.49927646  0.01083215    -0.59900
In456      In  0.06672124  0.58460431  0.26643824     1.36900
C457        C  0.06950054  0.56578110  0.30407434     0.88600
O458        O  0.05816605  0.59057631  0.30924969    -0.60600
O459        O  0.04266880  0.57755927  0.27342457    -0.51500
C460        C  0.08074946  0.61291810  0.24726629     0.70500
O461        O  0.08635358  0.60815974  0.26747445    -0.46400
C462        C  0.06942516  0.57159786  0.21494217     0.75200
O463        O  0.07925083  0.57956106  0.30359312    -0.58300
O464        O  0.05755735  0.57167808  0.22143959    -0.48300
O465        O  0.05858689  0.56208354  0.28593638    -0.54700
C466        C  0.04472523  0.58348940  0.30064142     0.85400
O467        O  0.06815141  0.60309630  0.23730201    -0.56600
O468        O  0.08006052  0.57893882  0.23388020    -0.59900
C469        C  0.97353915  0.55118515  0.43415228    -0.11700
C470        C  0.97296906  0.56066473  0.41095493     0.03700
C471        C  0.98481032  0.56813274  0.38953620    -0.12300
C472        C  0.99727322  0.56634109  0.39089274     0.18600
C473        C  0.99824125  0.55764018  0.41518114    -0.09300
C474        C  0.98649548  0.55026027  0.43669521    -0.02300
H475        H  0.98409849  0.57498145  0.37114003     0.05100
C476        C  0.00865361  0.57249598  0.36551467     0.20600
H477        H  0.98713335  0.54301630  0.45420821     0.10300
C478        C  0.02270998  0.58478111  0.37194054    -0.15700
C479        C  0.03450015  0.58923299  0.35037991     0.03300
C480        C  0.03225589  0.58124295  0.32166776    -0.11000
C481        C  0.01784172  0.56958671  0.31450536    -0.01000
C482        C  0.00613093  0.56515204  0.33616106    -0.06200
H483        H  0.02466193  0.59054828  0.39442543     0.06300
H484        H  0.01580115  0.56330956  0.29270650     0.09700
Br485      Br  0.01479345  0.55439054  0.41804977    -0.05900
Br486      Br  0.95640312  0.56387679  0.40725797    -0.02800
Br487      Br  0.05328816  0.60607534  0.36229034     0.00000
Br488      Br  0.98720567  0.54815375  0.32580565    -0.04300
C489        C  0.06403819  0.50047966  0.43659359    -0.11700
C490        C  0.07810851  0.51034955  0.42292930     0.03700
C491        C  0.07945833  0.52073241  0.40013865    -0.12300
C492        C  0.06698797  0.52140985  0.39015635     0.18600
C493        C  0.05284789  0.51102851  0.40232416    -0.09300
C494        C  0.05147071  0.50072523  0.42536690    -0.02300
H495        H  0.09032229  0.52840265  0.39027679     0.05100
C496        C  0.06890498  0.53311370  0.36741097     0.20600
H497        H  0.04058362  0.49324258  0.43535361     0.10300
C498        C  0.06347672  0.52906556  0.33645746    -0.15700
C499        C  0.06398481  0.53961350  0.31519778     0.03300
C500        C  0.07031848  0.55468280  0.32461056    -0.11000
C501        C  0.07637327  0.55883431  0.35514861    -0.01000
C502        C  0.07553728  0.54817025  0.37661488    -0.06200
H503        H  0.05848786  0.51754785  0.32905547     0.06300
H504        H  0.08110065  0.57027378  0.36290662     0.09700
Br505      Br  0.03520016  0.51103497  0.38935852    -0.05900
Br506      Br  0.09586409  0.50995360  0.43338262    -0.02800
Br507      Br  0.05591983  0.53264676  0.27359581     0.00000
Br508      Br  0.08248290  0.55445911  0.41905280    -0.04300
C509        C  0.07055074  0.56262492  0.18897295    -0.11700
C510        C  0.06200432  0.55915353  0.16107418     0.03700
C511        C  0.06213624  0.54906120  0.13922297    -0.12300
C512        C  0.07054533  0.54217991  0.14480560     0.18600
C513        C  0.07959148  0.54612857  0.17192181    -0.09300
C514        C  0.07960549  0.55634211  0.19359445    -0.02300
H515        H  0.05536499  0.54628411  0.11807284     0.05100
C516        C  0.06913684  0.53042682  0.12282905     0.20600
H517        H  0.08619137  0.55881891  0.21496312     0.10300
C518        C  0.08134882  0.53280395  0.10412279    -0.15700
C519        C  0.08015359  0.52192197  0.08272531     0.03300
C520        C  0.06646166  0.50851583  0.07946555    -0.11000
C521        C  0.05424647  0.50622993  0.09804669    -0.01000
C522        C  0.05555417  0.51692145  0.11995740    -0.06200
H523        H  0.09180387  0.54321385  0.10601655     0.06300
H524        H  0.04368687  0.49594196  0.09595059     0.09700
Br525      Br  0.09121369  0.53704958  0.18164551    -0.05900
Br526      Br  0.05020280  0.56800066  0.15115082    -0.02800
Br527      Br  0.09724534  0.52636945  0.05721108     0.00000
Br528      Br  0.03869252  0.51228062  0.14649950    -0.04300
C529        C  0.92909311  0.43615652  0.30131709    -0.11700
C530        C  0.91564974  0.43439067  0.31392819     0.03700
C531        C  0.91597627  0.44524146  0.33414525    -0.12300
C532        C  0.92947812  0.45785357  0.34242549     0.18600
C533        C  0.94289787  0.45958032  0.33026074    -0.09300
C534        C  0.94262141  0.44880249  0.30989056    -0.02300
H535        H  0.90565573  0.44363382  0.34420223     0.05100
C536        C  0.92948550  0.46811039  0.36675293     0.20600
H537        H  0.95303764  0.45048025  0.30027111     0.10300
C538        C  0.93530652  0.46815984  0.39658270    -0.15700
C539        C  0.93590793  0.47772960  0.42048068     0.03300
C540        C  0.93036436  0.48743455  0.41489131    -0.11000
C541        C  0.92396406  0.48696673  0.38532143    -0.01000
C542        C  0.92358826  0.47746537  0.36119394    -0.06200
H543        H  0.93955092  0.46074331  0.40120193     0.06300
H544        H  0.91975009  0.49439044  0.38055287     0.09700
Br545      Br  0.96184863  0.47661489  0.34042006    -0.05900
Br546      Br  0.89650641  0.41712160  0.30627641    -0.02800
Br547      Br  0.94424901  0.47659169  0.46017541     0.00000
Br548      Br  0.91571340  0.47823824  0.32067515    -0.04300
C549        C  0.92806516  0.43886226  0.16629971    -0.11700
C550        C  0.94137756  0.45087307  0.15383527     0.03700
C551        C  0.94077536  0.46130525  0.13416925    -0.12300
C552        C  0.92717773  0.46025955  0.12678384     0.18600
C553        C  0.91388463  0.44829529  0.13902496    -0.09300
C554        C  0.91440317  0.43766612  0.15842696    -0.02300
H555        H  0.95101555  0.47022372  0.12415070     0.05100
C556        C  0.92716947  0.47104735  0.10400793     0.20600
H557        H  0.90411725  0.42864982  0.16801829     0.10300
C558        C  0.92040122  0.46579532  0.07447584    -0.15700
C559        C  0.92142712  0.47561388  0.05081949     0.03300
C560        C  0.92957221  0.49112483  0.05634150    -0.11000
C561        C  0.93624908  0.49641131  0.08603648    -0.01000
C562        C  0.93501479  0.48651151  0.10989626    -0.06200
H563        H  0.91466448  0.45396595  0.06943538     0.06300
H564        H  0.94246969  0.50827348  0.09066835     0.09700
Br565      Br  0.89485245  0.44636523  0.13098224    -0.05900
Br566      Br  0.96080976  0.45354202  0.16126494    -0.02800
Br567      Br  0.91249643  0.46702926  0.01071171     0.00000
Br568      Br  0.94411367  0.49460828  0.15013209    -0.04300
C569        C  0.96244408  0.41057892  0.17180281    -0.11700
C570        C  0.96174247  0.41350045  0.13932462     0.03700
C571        C  0.97406507  0.41763169  0.11963357    -0.12300
C572        C  0.98717985  0.41871980  0.13129541     0.18600
C573        C  0.98755964  0.41494534  0.16332380    -0.09300
C574        C  0.97532163  0.41108894  0.18329466    -0.02300
H575        H  0.97370299  0.42092588  0.09546529     0.05100
C576        C  0.00087262  0.42626478  0.11131941     0.20600
H577        H  0.97599864  0.40880064  0.20808572     0.10300
C578        C  0.01308273  0.43934031  0.12304571    -0.15700
C579        C  0.02546671  0.44817805  0.10404001     0.03300
C580        C  0.02568807  0.44428982  0.07198826    -0.11000
C581        C  0.01359937  0.43111407  0.06016043    -0.01000
C582        C  0.00133724  0.42200492  0.07962110    -0.06200
H583        H  0.01273501  0.44309093  0.14688046     0.06300
H584        H  0.01367557  0.42791880  0.03569847     0.09700
Br585      Br  0.00460599  0.41518715  0.18124078    -0.05900
Br586      Br  0.94511610  0.41396812  0.12090821    -0.02800
Br587      Br  0.04099316  0.46618682  0.12277774     0.00000
Br588      Br  0.98562636  0.40387109  0.06181166    -0.04300
C589        C  0.30014939  0.08989999  0.00166618    -0.11700
C590        C  0.29971846  0.08217308  0.97354599     0.03700
C591        C  0.31241218  0.08758347  0.45428545    -0.12300
C592        C  0.32550934  0.10073942  0.46208325     0.18600
C593        C  0.32589463  0.10865208  0.48951429    -0.09300
C594        C  0.31340384  0.10307764  0.50931471    -0.02300
H595        H  0.31203042  0.08158285  0.43290596     0.05100
C596        C  0.33857562  0.10638554  0.44090308     0.20600
H597        H  0.31389714  0.10944447  0.03013977     0.10300
C598        C  0.33873053  0.11343582  0.41258537    -0.15700
C599        C  0.35157402  0.12047818  0.39373196     0.03300
C600        C  0.36459404  0.12042920  0.40327716    -0.11000
C601        C  0.36402303  0.11257362  0.43082315    -0.01000
C602        C  0.35118232  0.10560815  0.44956203    -0.06200
H603        H  0.32897764  0.11396419  0.40578265     0.06300
H604        H  0.37377516  0.11225430  0.43851911     0.09700
Br605      Br  0.34290525  0.12764275  0.49959362    -0.05900
Br606      Br  0.28232957  0.06429277  0.95955827    -0.02800
Br607      Br  0.35056962  0.13066155  0.35672808     0.00000
Br608      Br  0.35148577  0.09554839  0.98733536    -0.04300
C609        C  0.41109450  0.23189477  0.19341126    -0.11700
C610        C  0.40018996  0.22353880  0.21649462     0.03700
C611        C  0.40235358  0.21436409  0.23712767    -0.12300
C612        C  0.41526718  0.21337726  0.23520340     0.18600
C613        C  0.42650254  0.22224074  0.21329309    -0.09300
C614        C  0.42441443  0.23154583  0.19270177    -0.02300
H615        H  0.39375372  0.20766475  0.25425057     0.05100
C616        C  0.41609573  0.20210181  0.25457083     0.20600
H617        H  0.43283837  0.23787262  0.17497813     0.10300
C618        C  0.40771088  0.18715195  0.24528856    -0.15700
C619        C  0.40677452  0.17585781  0.26464808     0.03300
C620        C  0.41428183  0.17952906  0.29394085    -0.11000
C621        C  0.42327882  0.19457613  0.30241261    -0.01000
C622        C  0.42415789  0.20585035  0.28303893    -0.06200
H623        H  0.40162135  0.18425748  0.22315601     0.06300
H624        H  0.42904164  0.19756305  0.32494443     0.09700
Br625      Br  0.44429469  0.22112565  0.20935306    -0.05900
Br626      Br  0.38220568  0.22431909  0.22112829    -0.02800
Br627      Br  0.39531985  0.15573499  0.24958545     0.00000
Br628      Br  0.43570647  0.22608188  0.29724226    -0.04300
C629        C  0.40629110  0.22667169  0.05030333    -0.11700
C630        C  0.42036443  0.22847105  0.54220769     0.03700
C631        C  0.42130209  0.21882764  0.52039935    -0.12300
C632        C  0.40854531  0.20746269  0.50595141     0.18600
C633        C  0.39453265  0.20564667  0.01358002    -0.09300
C634        C  0.39349044  0.21519305  0.03561536    -0.02300
H635        H  0.43211649  0.22036876  0.51419296     0.05100
C636        C  0.41023228  0.19813540  0.48176126     0.20600
H637        H  0.38259954  0.21353206  0.04144141     0.10300
C638        C  0.41280547  0.18668893  0.49106758    -0.15700
C639        C  0.41390695  0.17736950  0.46840717     0.03300
C640        C  0.41232306  0.17949579  0.43593088    -0.11000
C641        C  0.41050476  0.19145591  0.42684732    -0.01000
C642        C  0.40956071  0.20077802  0.44935932    -0.06200
H643        H  0.41362154  0.18480630  0.51604368     0.06300
H644        H  0.40951924  0.19341902  0.40198712     0.09700
Br645      Br  0.37657280  0.19020709  0.99463211    -0.05900
Br646      Br  0.43895991  0.24403143  0.55872546    -0.02800
Br647      Br  0.41652909  0.16145921  0.48337868     0.00000
Br648      Br  0.40730860  0.21696065  0.43469737    -0.04300
C649        C  0.25499902  0.15217664  0.24464983    -0.11700
C650        C  0.25675262  0.14014776  0.25417386     0.03700
C651        C  0.25680068  0.13032805  0.23150229    -0.12300
C652        C  0.25495468  0.13214343  0.19929242     0.18600
C653        C  0.25236064  0.14360322  0.18986649    -0.09300
C654        C  0.25239501  0.15353476  0.21252698    -0.02300
H655        H  0.25846039  0.12132205  0.23897868     0.05100
C656        C  0.25620884  0.12220094  0.17591552     0.20600
H657        H  0.25097442  0.16266258  0.20486519     0.10300
C658        C  0.24340889  0.10907750  0.16656140    -0.15700
C659        C  0.24426697  0.09940154  0.14456188     0.03300
C660        C  0.25823843  0.10282494  0.13157774    -0.11000
C661        C  0.27106993  0.11585474  0.14173095    -0.01000
C662        C  0.27013263  0.12551329  0.16356259    -0.06200
H663        H  0.23268621  0.10637745  0.17639217     0.06300
H664        H  0.28187513  0.11880096  0.13199958     0.09700
Br665      Br  0.24923229  0.14631347  0.14620852    -0.05900
Br666      Br  0.25856595  0.13622243  0.29793332    -0.02800
Br667      Br  0.22593174  0.08165441  0.13411033     0.00000
Br668      Br  0.28810858  0.14332185  0.17529523    -0.04300
C669        C  0.25627136  0.15718830  0.38368779    -0.11700
C670        C  0.24275338  0.14921229  0.40073345     0.03700
C671        C  0.24089666  0.13824966  0.42241891    -0.12300
C672        C  0.25229755  0.13506009  0.42724605     0.18600
C673        C  0.26579268  0.14305397  0.41051938    -0.09300
C674        C  0.26772986  0.15407865  0.38909511    -0.02300
H675        H  0.23059642  0.13228196  0.43575103     0.05100
C676        C  0.25045738  0.12397308  0.45105578     0.20600
H677        H  0.27810709  0.15996991  0.37599581     0.10300
C678        C  0.24551150  0.10926531  0.44163512    -0.15700
C679        C  0.24616990  0.09919134  0.46256553     0.03300
C680        C  0.25180423  0.10391791  0.99344626    -0.11000
C681        C  0.25594573  0.11843362  0.00314321    -0.01000
C682        C  0.25537220  0.12844437  0.48223164    -0.06200
H683        H  0.24188225  0.10586755  0.41744741     0.06300
H684        H  0.26023695  0.12223552  0.02680906     0.09700
Br685      Br  0.28182139  0.13917036  0.41622485    -0.05900
Br686      Br  0.22674011  0.15322818  0.39664941    -0.02800
Br687      Br  0.24084051  0.07986413  0.44643468     0.00000
Br688      Br  0.26255155  0.14846813  0.99645992    -0.04300
C689        C  0.36415126  0.24802666  0.16386325    -0.11700
C690        C  0.36466461  0.25657720  0.19058529     0.03700
C691        C  0.35198965  0.25178549  0.20970463    -0.12300
C692        C  0.33866305  0.23871846  0.20247033     0.18600
C693        C  0.33778929  0.23086469  0.17455495    -0.09300
C694        C  0.35044574  0.23552182  0.15558185    -0.02300
H695        H  0.35264149  0.25804000  0.23084916     0.05100
C696        C  0.32617856  0.23263531  0.22546984     0.20600
H697        H  0.34969772  0.22885074  0.13511907     0.10300
C698        C  0.31323272  0.23306598  0.21863017    -0.15700
C699        C  0.30050851  0.22551613  0.23778107     0.03300
C700        C  0.30065223  0.21730904  0.26432627    -0.11000
C701        C  0.31399796  0.21780930  0.27224035    -0.01000
C702        C  0.32664121  0.22528454  0.25300544    -0.06200
H703        H  0.31288300  0.23889511  0.19771732     0.06300
H704        H  0.31438968  0.21162780  0.29245922     0.09700
Br705      Br  0.31983615  0.21304856  0.16266323    -0.05900
Br706      Br  0.38217148  0.27482097  0.20259222    -0.02800
Br707      Br  0.28340503  0.22687898  0.22621537     0.00000
Br708      Br  0.34386182  0.22400721  0.26379710    -0.04300
C709        C  0.20882763  0.24827287  0.40647516    -0.11700
C710        C  0.20654923  0.23512707  0.42142034     0.03700
C711        C  0.21317238  0.22736490  0.40882340    -0.12300
C712        C  0.22221122  0.23248061  0.38165854     0.18600
C713        C  0.22470853  0.24568382  0.36706020    -0.09300
C714        C  0.21806095  0.25343108  0.37946189    -0.02300
H715        H  0.21129996  0.21727212  0.42034918     0.05100
C716        C  0.22889911  0.22387656  0.36887277     0.20600
H717        H  0.22005341  0.26350593  0.36766742     0.10300
C718        C  0.22390373  0.21640573  0.33980893    -0.15700
C719        C  0.23005936  0.20827002  0.32682474     0.03300
C720        C  0.24145740  0.20743849  0.34319170    -0.11000
C721        C  0.24632033  0.21488714  0.37248386    -0.01000
C722        C  0.24017076  0.22302845  0.38530693    -0.06200
H723        H  0.21522678  0.21702113  0.32701299     0.06300
H724        H  0.25504132  0.21446610  0.38552599     0.09700
Br725      Br  0.23744893  0.25380433  0.33065898    -0.05900
Br726      Br  0.19511916  0.22739323  0.45970092    -0.02800
Br727      Br  0.22278084  0.19925952  0.28610438     0.00000
Br728      Br  0.24794464  0.23331841  0.42471182    -0.04300
C729        C  0.21807899  0.30720832  0.49150800    -0.11700
C730        C  0.22422853  0.32239092  0.48334088     0.03700
C731        C  0.23118510  0.33338950  0.00665747    -0.12300
C732        C  0.23225483  0.32961165  0.03802039     0.18600
C733        C  0.22697371  0.31466369  0.04577107    -0.09300
C734        C  0.22002369  0.30365003  0.02265102    -0.02300
H735        H  0.23529268  0.34493104  0.50056811     0.05100
C736        C  0.23733213  0.34117954  0.06284656     0.20600
H737        H  0.21562327  0.29215792  0.02953829     0.10300
C738        C  0.22672921  0.34100763  0.08378558    -0.15700
C739        C  0.23057959  0.35261614  0.10533133     0.03300
C740        C  0.24535752  0.36470196  0.10610784    -0.11000
C741        C  0.25606410  0.36458532  0.08582434    -0.01000
C742        C  0.25216391  0.35292219  0.06435423    -0.06200
H743        H  0.21524365  0.33206503  0.08244590     0.06300
H744        H  0.26745405  0.37376264  0.08620754     0.09700
Br745      Br  0.22870975  0.30876794  0.08785770    -0.05900
Br746      Br  0.22326522  0.32906863  0.44149774    -0.02800
Br747      Br  0.21475356  0.35198163  0.13029996     0.00000
Br748      Br  0.26736333  0.35351451  0.03740409    -0.04300
C749        C  0.10313634  0.26477677  0.10672627    -0.11700
C750        C  0.09946493  0.25072825  0.09394604     0.03700
C751        C  0.10878087  0.24971938  0.07119025    -0.12300
C752        C  0.12179047  0.26245917  0.06103503     0.18600
C753        C  0.12529375  0.27646103  0.07314102    -0.09300
C754        C  0.11595073  0.27754113  0.09557256    -0.02300
H755        H  0.10597145  0.23893330  0.06163239     0.05100
C756        C  0.13171994  0.26106089  0.03794014     0.20600
H757        H  0.11909484  0.28838390  0.10530785     0.10300
C758        C  0.13123761  0.26456751  0.00612772    -0.15700
C759        C  0.14157794  0.26500092  0.48422675     0.03300
C760        C  0.15272527  0.26196831  0.99422237    -0.11000
C761        C  0.15260038  0.25754964  0.02569963    -0.01000
C762        C  0.14222843  0.25715545  0.04759435    -0.06200
H763        H  0.12299816  0.26733440  0.99849763     0.06300
H764        H  0.16106288  0.25517720  0.03371361     0.09700
Br765      Br  0.14317358  0.29431875  0.06102004    -0.05900
Br766      Br  0.08190176  0.23251970  0.10596839    -0.02800
Br767      Br  0.13974946  0.26963408  0.44096717     0.00000
Br768      Br  0.14342035  0.25225538  0.09088217    -0.04300
C769        C  0.16554009  0.27057095  0.35513768    -0.11700
C770        C  0.16458502  0.28307546  0.34553070     0.03700
C771        C  0.15437391  0.28145575  0.32217727    -0.12300
C772        C  0.14500213  0.26757869  0.30826236     0.18600
C773        C  0.14622285  0.25523805  0.31691418    -0.09300
C774        C  0.15640442  0.25677845  0.34022450    -0.02300
H775        H  0.15337027  0.29096328  0.31557649     0.05100
C776        C  0.13342734  0.26602370  0.28610563     0.20600
H777        H  0.15693365  0.24705110  0.34720644     0.10300
C778        C  0.13682474  0.26874204  0.25379712    -0.15700
C779        C  0.12626916  0.26808600  0.23249461     0.03300
C780        C  0.11199401  0.26452102  0.24360864    -0.11000
C781        C  0.10847180  0.26127766  0.27581774    -0.01000
C782        C  0.11914466  0.26220332  0.29713187    -0.06200
H783        H  0.14779165  0.27159187  0.24524164     0.06300
H784        H  0.09765453  0.25876295  0.28471245     0.09700
Br785      Br  0.13379823  0.23602519  0.29818042    -0.05900
Br786      Br  0.17578214  0.30235298  0.36494158    -0.02800
Br787      Br  0.13196559  0.27198130  0.18854185     0.00000
Br788      Br  0.11406474  0.25896963  0.34133981    -0.04300
C789        C  0.12777801  0.42481551  0.43319573    -0.11700
C790        C  0.12477277  0.43429777  0.41464394     0.03700
C791        C  0.11651838  0.44034307  0.42760948    -0.12300
C792        C  0.11123898  0.43726398  0.45894938     0.18600
C793        C  0.11435673  0.42800362  0.47757718    -0.09300
C794        C  0.12243877  0.42180568  0.46463057    -0.02300
H795        H  0.11410635  0.44742774  0.41308103     0.05100
C796        C  0.10228946  0.44362172  0.47151006     0.20600
H797        H  0.12473790  0.41473767  0.47948058     0.10300
C798        C  0.08679167  0.43448757  0.47433057    -0.15700
C799        C  0.07792000  0.44032058  0.48457444     0.03300
C800        C  0.08458020  0.45559500  0.49216628    -0.11000
C801        C  0.10014704  0.46458942  0.49030287    -0.01000
C802        C  0.10897464  0.45874628  0.47993069    -0.06200
H803        H  0.08157376  0.42278309  0.46832566     0.06300
H804        H  0.10546175  0.47630609  0.49625565     0.09700
Br805      Br  0.10826316  0.42395789  0.02116606    -0.05900
Br806      Br  0.13094702  0.43899652  0.37119736    -0.02800
Br807      Br  0.05692045  0.42674644  0.98924261     0.00000
Br808      Br  0.13013010  0.47178357  0.47781359    -0.04300
C809        C  0.23093410  0.41316367  0.09236674    -0.11700
C810        C  0.21759090  0.41245123  0.10230471     0.03700
C811        C  0.20816562  0.41333193  0.07992863    -0.12300
C812        C  0.21158593  0.41453968  0.04746429     0.18600
C813        C  0.22501416  0.41552287  0.03756413    -0.09300
C814        C  0.23469474  0.41509858  0.06001717    -0.02300
H815        H  0.19784240  0.41252097  0.08776241     0.05100
C816        C  0.20044102  0.41344673  0.02416830     0.20600
H817        H  0.24472138  0.41533422  0.05196882     0.10300
C818        C  0.20258637  0.42619560  0.00832232    -0.15700
C819        C  0.19245282  0.42530394  0.98532717     0.03300
C820        C  0.17971308  0.41135018  0.47801881    -0.11000
C821        C  0.17759119  0.39867743  0.49444796    -0.01000
C822        C  0.18781458  0.39962776  0.01711135    -0.06200
H823        H  0.21233182  0.43686959  0.01355117     0.06300
H824        H  0.16809587  0.38784305  0.48915205     0.09700
Br825      Br  0.22979819  0.41592662  0.99344118    -0.05900
Br826      Br  0.21158748  0.41010667  0.14611043    -0.02800
Br827      Br  0.19719869  0.44358157  0.96449979     0.00000
Br828      Br  0.18453627  0.38160006  0.53668408    -0.04300
C829        C  0.23459619  0.40885348  0.23255537    -0.11700
C830        C  0.22054427  0.39724535  0.24289450     0.03700
C831        C  0.21209483  0.40038820  0.26398056    -0.12300
C832        C  0.21748567  0.41481309  0.27570206     0.18600
C833        C  0.23185729  0.42616306  0.26725491    -0.09300
C834        C  0.24019994  0.42319190  0.24541848    -0.02300
H835        H  0.20115912  0.39153343  0.27114520     0.05100
C836        C  0.20792207  0.41748408  0.29737158     0.20600
H837        H  0.25103427  0.43218535  0.23815429     0.10300
C838        C  0.21056932  0.41816689  0.33000400    -0.15700
C839        C  0.20026348  0.41798434  0.35161616     0.03300
C840        C  0.18712448  0.41721148  0.34054732    -0.11000
C841        C  0.18500016  0.41762702  0.30784879    -0.01000
C842        C  0.19524931  0.41761893  0.28620513    -0.06200
H843        H  0.22033950  0.41814151  0.33869577     0.06300
H844        H  0.17489738  0.41694924  0.29912658     0.09700
Br845      Br  0.24033235  0.44587125  0.28441364    -0.05900
Br846      Br  0.21172661  0.37702253  0.22833185    -0.02800
Br847      Br  0.20448614  0.41846074  0.39602787     0.00000
Br848      Br  0.19113318  0.41694407  0.24171706    -0.04300
C849        C  0.12270232  0.36726719  0.35106657    -0.11700
C850        C  0.11565515  0.36790547  0.32294271     0.03700
C851        C  0.10834398  0.35536707  0.30333820    -0.12300
C852        C  0.10776019  0.34200645  0.31102121     0.18600
C853        C  0.11421822  0.34110194  0.33960809    -0.09300
C854        C  0.12149262  0.35361729  0.35942532    -0.02300
H855        H  0.10339305  0.35615446  0.28142226     0.05100
C856        C  0.10191710  0.32986463  0.28710375     0.20600
H857        H  0.12684287  0.35284066  0.38071049     0.10300
C858        C  0.11030730  0.33190491  0.25949553    -0.15700
C859        C  0.10564224  0.32072552  0.23643192     0.03300
C860        C  0.09221622  0.30704078  0.24077842    -0.11000
C861        C  0.08358373  0.30524068  0.26806907    -0.01000
C862        C  0.08826009  0.31652630  0.29097701    -0.06200
H863        H  0.12077260  0.34220103  0.25619923     0.06300
H864        H  0.07322361  0.29490524  0.27188121     0.09700
Br865      Br  0.11444705  0.32341989  0.35132305    -0.05900
Br866      Br  0.11551341  0.38543523  0.30943967    -0.02800
Br867      Br  0.11880724  0.32472286  0.20097383     0.00000
Br868      Br  0.07559643  0.31330042  0.32691828    -0.04300
C869        C  0.20837221  0.96459597  0.15638790    -0.11700
C870        C  0.22092362  0.96945695  0.13625706     0.03700
C871        C  0.22775266  0.98373851  0.12305743    -0.12300
C872        C  0.22244636  0.99343861  0.12975752     0.18600
C873        C  0.21025737  0.98882119  0.15048856    -0.09300
C874        C  0.20333899  0.97452653  0.16360843    -0.02300
H875        H  0.23728955  0.98732864  0.10750321     0.05100
C876        C  0.22973943  0.00833806  0.11491087     0.20600
H877        H  0.19383400  0.97110090  0.17916397     0.10300
C878        C  0.22243778  0.01122044  0.09054201    -0.15700
C879        C  0.22879476  0.02532633  0.07653901     0.03300
C880        C  0.24282614  0.03693208  0.08705565    -0.11000
C881        C  0.25016920  0.03381417  0.11116471    -0.01000
C882        C  0.24377493  0.01971508  0.12500636    -0.06200
H883        H  0.21165332  0.00243882  0.08253923     0.06300
H884        H  0.26090177  0.04244422  0.11972843     0.09700
Br885      Br  0.20291249  0.00181764  0.16198268    -0.05900
Br886      Br  0.22983310  0.95757580  0.12692309    -0.02800
Br887      Br  0.21750002  0.02770019  0.04356045     0.00000
Br888      Br  0.25436423  0.01666837  0.15849397    -0.04300
C889        C  0.21484073  0.91152151  0.22943171    -0.11700
C890        C  0.22858023  0.92178357  0.24331275     0.03700
C891        C  0.23591093  0.91669292  0.26300498    -0.12300
C892        C  0.22969206  0.90144229  0.26924247     0.18600
C893        C  0.21603316  0.89120342  0.25505647    -0.09300
C894        C  0.20888004  0.89626427  0.23499005    -0.02300
H895        H  0.24641678  0.92465352  0.27372642     0.05100
C896        C  0.23715142  0.89630542  0.29149903     0.20600
H897        H  0.19815042  0.88827160  0.22516143     0.10300
C898        C  0.23734497  0.89930436  0.32404826    -0.15700
C899        C  0.24235068  0.89279108  0.34620701     0.03300
C900        C  0.24714269  0.88294696  0.33580264    -0.11000
C901        C  0.24799691  0.88094584  0.30298039    -0.01000
C902        C  0.24313054  0.88755590  0.28095052    -0.06200
H903        H  0.23312909  0.90635656  0.33233384     0.06300
H904        H  0.25190077  0.87369344  0.29430729     0.09700
Br905      Br  0.20603598  0.87030013  0.26447336    -0.05900
Br906      Br  0.23790338  0.94276391  0.23547126    -0.02800
Br907      Br  0.24256014  0.89798345  0.39002715     0.00000
Br908      Br  0.24450008  0.88399900  0.23667188    -0.04300
C909        C  0.09714333  0.84693735  0.52156467    -0.11700
C910        C  0.10127115  0.86193804  0.51681428     0.03700
C911        C  0.11077566  0.87279093  0.03850477    -0.12300
C912        C  0.11623282  0.86883148  0.06477681     0.18600
C913        C  0.11133456  0.85374966  0.07053752    -0.09300
C914        C  0.10189984  0.84294671  0.04892567    -0.02300
H915        H  0.11464752  0.88441522  0.03383805     0.05100
C916        C  0.12847427  0.88048494  0.08363064     0.20600
H917        H  0.09891081  0.83146321  0.05260260     0.10300
C918        C  0.12528297  0.88619015  0.11071527    -0.15700
C919        C  0.13668141  0.89577212  0.13124959     0.03300
C920        C  0.15161876  0.89973281  0.12463705    -0.11000
C921        C  0.15473875  0.89438498  0.09672934    -0.01000
C922        C  0.14333383  0.88487978  0.07629159    -0.06200
H923        H  0.11382245  0.88271974  0.11651361     0.06300
H924        H  0.16607449  0.89732483  0.09109417     0.09700
Br925      Br  0.11835029  0.84758714  0.10609937    -0.05900
Br926      Br  0.09602290  0.86841427  0.47902862    -0.02800
Br927      Br  0.13070722  0.90186951  0.16891860     0.00000
Br928      Br  0.14844620  0.87756223  0.03929911    -0.04300
C929        C  0.10856938  0.84751091  0.38030162    -0.11700
C930        C  0.11146167  0.84347806  0.35027714     0.03700
C931        C  0.12125855  0.85452345  0.32934474    -0.12300
C932        C  0.12848828  0.86961622  0.33793865     0.18600
C933        C  0.12552018  0.87368405  0.36776236    -0.09300
C934        C  0.11552589  0.86266509  0.38854644    -0.02300
H935        H  0.12334931  0.85132522  0.30624166     0.05100
C936        C  0.13926753  0.88080253  0.31552025     0.20600
H937        H  0.11348290  0.86593671  0.41161053     0.10300
C938        C  0.13600074  0.89092192  0.30085026    -0.15700
C939        C  0.14540113  0.90064668  0.27726485     0.03300
C940        C  0.15818357  0.90016659  0.26802644    -0.11000
C941        C  0.16162050  0.89036169  0.28341701    -0.01000
C942        C  0.15237007  0.88080391  0.30706207    -0.06200
H943        H  0.12586767  0.89090208  0.30703582     0.06300
H944        H  0.17147355  0.88995280  0.27659316     0.09700
Br945      Br  0.13544226  0.89401936  0.38174033    -0.05900
Br946      Br  0.10189902  0.82321146  0.33588538    -0.02800
Br947      Br  0.13957619  0.91326528  0.25651411     0.00000
Br948      Br  0.15811201  0.86790260  0.32691941    -0.04300
C949        C  0.12575964  0.70391831  0.18074304    -0.11700
C950        C  0.11673023  0.69965146  0.20846934     0.03700
C951        C  0.10987752  0.68492568  0.21928263    -0.12300
C952        C  0.11171444  0.67418976  0.20308795     0.18600
C953        C  0.12055380  0.67830467  0.17547620    -0.09300
C954        C  0.12758155  0.69305351  0.16469491    -0.02300
H955        H  0.10301818  0.68179940  0.24048083     0.05100
C956        C  0.10389351  0.65863689  0.21478230     0.20600
H957        H  0.13435214  0.69597108  0.14340086     0.10300
C958        C  0.08940448  0.64883577  0.20438117    -0.15700
C959        C  0.08159759  0.63401178  0.21464269     0.03300
C960        C  0.08835894  0.62867193  0.23599988    -0.11000
C961        C  0.10287718  0.63869321  0.24663808    -0.01000
C962        C  0.11060730  0.65351833  0.23624660    -0.06200
H963        H  0.08413985  0.65276218  0.18803538     0.06300
H964        H  0.10832208  0.63499224  0.26301372     0.09700
Br965      Br  0.12304785  0.66401276  0.15149073    -0.05900
Br966      Br  0.11338297  0.71318108  0.23351742    -0.02800
Br967      Br  0.06177647  0.62204642  0.19827989     0.00000
Br968      Br  0.13034242  0.66643200  0.25183686    -0.04300
C969        C  0.22845798  0.82821152  0.47027482    -0.11700
C970        C  0.21626307  0.82874435  0.48393789     0.03700
C971        C  0.20711077  0.81798261  0.00621556    -0.12300
C972        C  0.20967554  0.80649016  0.01502567     0.18600
C973        C  0.22170082  0.80586098  0.00141836    -0.09300
C974        C  0.23099657  0.81668336  0.97951455    -0.02300
H975        H  0.19779162  0.81846354  0.01650291     0.05100
C976        C  0.19972748  0.79535644  0.03864687     0.20600
H977        H  0.24014733  0.81589037  0.46927993     0.10300
C978        C  0.18930236  0.78086213  0.02882208    -0.15700
C979        C  0.17924141  0.77033899  0.05049865     0.03300
C980        C  0.17954700  0.77431459  0.08268661    -0.11000
C981        C  0.19017998  0.78879639  0.09238371    -0.01000
C982        C  0.20021867  0.79923415  0.07077132    -0.06200
H983        H  0.18878229  0.77783870  0.00404107     0.06300
H984        H  0.19063308  0.79208160  0.11696406     0.09700
Br985      Br  0.22589122  0.79045309  0.01214365    -0.05900
Br986      Br  0.21091149  0.84330031  0.47269893    -0.02800
Br987      Br  0.16466338  0.75124635  0.03415442     0.00000
Br988      Br  0.21451448  0.81864946  0.08620771    -0.04300
C989        C  0.22776618  0.81785797  0.33548348    -0.11700
C990        C  0.23116300  0.81723610  0.30330973     0.03700
C991        C  0.22057929  0.80596317  0.28384139    -0.12300
C992        C  0.20667370  0.79526073  0.29606219     0.18600
C993        C  0.20371195  0.79526236  0.32861224    -0.09300
C994        C  0.21417795  0.80658700  0.34798813    -0.02300
H995        H  0.22289812  0.80598168  0.25874527     0.05100
C996        C  0.19491878  0.78522616  0.27393143     0.20600
H997        H  0.21150818  0.80683807  0.37279104     0.10300
C998        C  0.19524094  0.77298051  0.26105021    -0.15700
C999        C  0.18485105  0.76395966  0.23816213     0.03300
C1000       C  0.17400450  0.76734358  0.22750867    -0.11000
C1001       C  0.17341915  0.77931329  0.24153162    -0.01000
C1002       C  0.18377912  0.78825430  0.26441103    -0.06200
H1003       H  0.20370978  0.77052917  0.26862651     0.06300
H1004       H  0.16523868  0.78213726  0.23379268     0.09700
Br1005     Br  0.18529365  0.78036627  0.34719405    -0.05900
Br1006     Br  0.24922594  0.83233508  0.28392237    -0.02800
Br1007     Br  0.18607264  0.74715877  0.22313835     0.00000
Br1008     Br  0.18282717  0.80502395  0.28065783    -0.04300
C1009       C  0.08827044  0.78632875  0.49528103    -0.11700
C1010       C  0.10024955  0.78394879  0.48830361     0.03700
C1011       C  0.10391440  0.77601716  0.00957746    -0.12300
C1012       C  0.09602324  0.77046507  0.03803717     0.18600
C1013       C  0.08385087  0.77239708  0.04467153    -0.09300
C1014       C  0.07997621  0.78011581  0.02326732    -0.02300
H1015       H  0.11339973  0.77468186  0.00449012     0.05100
C1016       C  0.10182044  0.76426257  0.06179381     0.20600
H1017       H  0.07078084  0.78177672  0.02929370     0.10300
C1018       C  0.10923740  0.77292713  0.08835703    -0.15700
C1019       C  0.11695992  0.76873741  0.10897130     0.03300
C1020       C  0.11723942  0.75546324  0.10326366    -0.11000
C1021       C  0.10919888  0.74646748  0.07732122    -0.01000
C1022       C  0.10158813  0.75079246  0.05662606    -0.06200
H1023       H  0.10963514  0.78342629  0.09218502     0.06300
H1024       H  0.10921750  0.73624704  0.07246435     0.09700
Br1025     Br  0.07251433  0.76507174  0.08312680    -0.05900
Br1026     Br  0.11259242  0.79159582  0.45115115    -0.02800
Br1027     Br  0.12804759  0.78258866  0.14218516     0.00000
Br1028     Br  0.09133233  0.73820433  0.02115980    -0.04300
C1029       C  0.57876828  0.54882111  0.18551862    -0.11700
C1030       C  0.58260206  0.56351184  0.19309952     0.03700
C1031       C  0.57858330  0.57147727  0.17251435    -0.12300
C1032       C  0.57012068  0.56473240  0.14509562     0.18600
C1033       C  0.56589614  0.54981542  0.13833650    -0.09300
C1034       C  0.57051888  0.54217533  0.15804042    -0.02300
H1035       H  0.58193298  0.58291324  0.17808693     0.05100
C1036       C  0.56541379  0.57307085  0.12404391     0.20600
H1037       H  0.56721755  0.53074570  0.15240722     0.10300
C1038       C  0.56922556  0.57462109  0.09166769    -0.15700
C1039       C  0.56284297  0.57996771  0.07001689     0.03300
C1040       C  0.55272289  0.58432988  0.08080130    -0.11000
C1041       C  0.55018108  0.58422323  0.11366192    -0.01000
C1042       C  0.55616977  0.57842163  0.13512334    -0.06200
H1043       H  0.57665272  0.57093661  0.08293510     0.06300
H1044       H  0.54253047  0.58757860  0.12260377     0.09700
Br1045     Br  0.55287824  0.53886894  0.10389897    -0.05900
Br1046     Br  0.59360274  0.57318544  0.23067948    -0.02800
Br1047     Br  0.56818734  0.58067836  0.02613937     0.00000
Br1048     Br  0.54987981  0.57647403  0.17862709    -0.04300
C1049       C  0.46435877  0.36915317  0.02188479    -0.11700
C1050       C  0.46742329  0.35805838  0.01099116     0.03700
C1051       C  0.45971527  0.34370760  0.02401497    -0.12300
C1052       C  0.44910025  0.34012990  0.04811707     0.18600
C1053       C  0.44631887  0.35120438  0.05958005    -0.09300
C1054       C  0.45381436  0.36547375  0.04637769    -0.02300
H1055       H  0.46201420  0.33525692  0.01529849     0.05100
C1056       C  0.44098890  0.32478785  0.06095941     0.20600
H1057       H  0.45134570  0.37374744  0.05545837     0.10300
C1058       C  0.44435704  0.32201744  0.09140557    -0.15700
C1059       C  0.43672037  0.30770234  0.10453772     0.03300
C1060       C  0.42549271  0.29571462  0.08683359    -0.11000
C1061       C  0.42218416  0.29861382  0.05627933    -0.01000
C1062       C  0.42977641  0.31295791  0.04338368    -0.06200
H1063       H  0.45290166  0.33111039  0.10516565     0.06300
H1064       H  0.41360361  0.28968806  0.04225916     0.09700
Br1065     Br  0.43211253  0.34726636  0.09278659    -0.05900
Br1066     Br  0.48180522  0.36143508  0.47848981    -0.02800
Br1067     Br  0.44192395  0.30568909  0.14713433     0.00000
Br1068     Br  0.42408282  0.31599939  0.00212955    -0.04300
C1069       C  0.56301100  0.49109437  0.30937305    -0.11700
C1070       C  0.55037965  0.49040858  0.32397091     0.03700
C1071       C  0.54145227  0.47861131  0.34440047    -0.12300
C1072       C  0.54473285  0.46734498  0.35038255     0.18600
C1073       C  0.55704704  0.46780034  0.33552248    -0.09300
C1074       C  0.56610984  0.47963007  0.31546472    -0.02300
H1075       H  0.53188607  0.47821644  0.35575899     0.05100
C1076       C  0.53545482  0.45548648  0.37309330     0.20600
H1077       H  0.57551139  0.47967908  0.30416311     0.10300
C1078       C  0.52126560  0.44408668  0.36400899    -0.15700
C1079       C  0.51175930  0.43343169  0.38602059     0.03300
C1080       C  0.51644247  0.43431528  0.41765641    -0.11000
C1081       C  0.53080961  0.44545220  0.42635678    -0.01000
C1082       C  0.54035704  0.45592431  0.40430402    -0.06200
H1083       H  0.51744149  0.44374571  0.34000039     0.06300
H1084       H  0.53442094  0.44632822  0.45073743     0.09700
Br1085     Br  0.56161219  0.45225793  0.34136062    -0.05900
Br1086     Br  0.54423768  0.50472816  0.31671399    -0.02800
Br1087     Br  0.49201841  0.41898350  0.37259181     0.00000
Br1088     Br  0.55964426  0.47114623  0.41836276    -0.04300
C1089       C  0.56311572  0.48509423  0.17670376    -0.11700
C1090       C  0.54845362  0.47411537  0.18523360     0.03700
C1091       C  0.53919618  0.46363754  0.16285225    -0.12300
C1092       C  0.54435190  0.46364416  0.13212875     0.18600
C1093       C  0.55929501  0.47383056  0.12425591    -0.09300
C1094       C  0.56858418  0.48447032  0.14655677    -0.02300
H1095       H  0.52778304  0.45564438  0.16920394     0.05100
C1096       C  0.53349585  0.45399557  0.10800600     0.20600
H1097       H  0.57984629  0.49270980  0.13977918     0.10300
C1098       C  0.52387365  0.45834900  0.09523529    -0.15700
C1099       C  0.51328997  0.44962053  0.07245931     0.03300
C1100       C  0.51199583  0.43602192  0.06258797    -0.11000
C1101       C  0.52167081  0.43169695  0.07555478    -0.01000
C1102       C  0.53236477  0.44056169  0.09806600    -0.06200
H1103       H  0.52481996  0.46877970  0.10262338     0.06300
H1104       H  0.52098770  0.42140699  0.06800501     0.09700
Br1105     Br  0.56715668  0.47416047  0.08281448    -0.05900
Br1106     Br  0.54045308  0.47261735  0.22719326    -0.02800
Br1107     Br  0.50200505  0.45766068  0.05400945     0.00000
Br1108     Br  0.54518770  0.43394550  0.11451338    -0.04300
C1109       C  0.29830541  0.42085706  0.18683404    -0.11700
C1110       C  0.31109431  0.43036350  0.16874110     0.03700
C1111       C  0.32525529  0.43655654  0.18241178    -0.12300
C1112       C  0.32699490  0.43327493  0.21378823     0.18600
C1113       C  0.31434282  0.42337767  0.23145616    -0.09300
C1114       C  0.30017734  0.41730333  0.21801055    -0.02300
H1115       H  0.33499418  0.44392965  0.16844461     0.05100
C1116       C  0.34211157  0.44040047  0.22761446     0.20600
H1117       H  0.29055686  0.40985974  0.23219602     0.10300
C1118       C  0.34691713  0.45286268  0.24731697    -0.15700
C1119       C  0.36149194  0.46051707  0.25912077     0.03300
C1120       C  0.37168550  0.45578748  0.25078910    -0.11000
C1121       C  0.36656647  0.44295315  0.23179805    -0.01000
C1122       C  0.35194515  0.43525975  0.22042897    -0.06200
H1123       H  0.33931226  0.45676721  0.25322100     0.06300
H1124       H  0.37399763  0.43890112  0.22543694     0.09700
Br1125     Br  0.31594152  0.41758973  0.27371835    -0.05900
Br1126     Br  0.31012379  0.43456234  0.12481732    -0.02800
Br1127     Br  0.36647890  0.47729683  0.28611940     0.00000
Br1128     Br  0.34575368  0.41765589  0.19545540    -0.04300
C1129       C  0.44330593  0.51383246  0.33444779    -0.11700
C1130       C  0.45761533  0.52527034  0.32504432     0.03700
C1131       C  0.46760503  0.53492151  0.34777594    -0.12300
C1132       C  0.46361152  0.53340810  0.37990713     0.18600
C1133       C  0.44906677  0.52258371  0.38907895    -0.09300
C1134       C  0.43903214  0.51291872  0.36637889    -0.02300
H1135       H  0.47865381  0.54347432  0.34044852     0.05100
C1136       C  0.47485436  0.54312893  0.40344437     0.20600
H1137       H  0.42807845  0.50426545  0.37395895     0.10300
C1138       C  0.47869420  0.55807930  0.40579663    -0.15700
C1139       C  0.48913995  0.56753087  0.42811342     0.03300
C1140       C  0.49596594  0.56203398  0.44852731    -0.11000
C1141       C  0.49256626  0.54721531  0.44521401    -0.01000
C1142       C  0.48208710  0.53776676  0.42289518    -0.06200
H1143       H  0.47346997  0.56238153  0.39031608     0.06300
H1144       H  0.49774528  0.54284558  0.46063820     0.09700
Br1145     Br  0.44253320  0.52045671  0.43236822    -0.05900
Br1146     Br  0.46406246  0.52851912  0.28150540    -0.02800
Br1147     Br  0.49415796  0.58800036  0.42863676     0.00000
Br1148     Br  0.47803882  0.51766093  0.41957869    -0.04300
C1149       C  0.48848601  0.55826718  0.08721041    -0.11700
C1150       C  0.49208197  0.55109924  0.11087114     0.03700
C1151       C  0.48085734  0.54009645  0.12959986    -0.12300
C1152       C  0.46586619  0.53567547  0.12468857     0.18600
C1153       C  0.46223360  0.54292926  0.10116765    -0.09300
C1154       C  0.47355837  0.55424015  0.08280850    -0.02300
H1155       H  0.48385040  0.53492479  0.14815735     0.05100
C1156       C  0.45448585  0.52414735  0.14586667     0.20600
H1157       H  0.47065200  0.55947724  0.06424261     0.10300
C1158       C  0.44631188  0.52806076  0.16617397    -0.15700
C1159       C  0.43703471  0.51832094  0.18973369     0.03300
C1160       C  0.43593960  0.50426925  0.19365380    -0.11000
C1161       C  0.44370099  0.50015610  0.17237853    -0.01000
C1162       C  0.45285914  0.50990125  0.14864011    -0.06200
H1163       H  0.44761998  0.53904705  0.16451289     0.06300
H1164       H  0.44294660  0.48943167  0.17463722     0.09700
Br1165     Br  0.44199020  0.53721070  0.09199567    -0.05900
Br1166     Br  0.51221198  0.55615550  0.11920921    -0.02800
Br1167     Br  0.42711640  0.52565031  0.21652800     0.00000
Br1168     Br  0.46300080  0.50325611  0.12077124    -0.04300
C1169       C  0.45825186  0.42285147  0.43482426    -0.11700
C1170       C  0.44944460  0.41410550  0.40905759     0.03700
C1171       C  0.44335903  0.41993427  0.38791682    -0.12300
C1172       C  0.44600887  0.43445152  0.39149299     0.18600
C1173       C  0.45474022  0.44319812  0.41701193    -0.09300
C1174       C  0.46063930  0.43734170  0.43853468    -0.02300
H1175       H  0.43656897  0.41312438  0.36840484     0.05100
C1176       C  0.43926630  0.44016605  0.36885666     0.20600
H1177       H  0.46761093  0.44439842  0.45757329     0.10300
C1178       C  0.42700271  0.44131528  0.37862217    -0.15700
C1179       C  0.42061517  0.44719339  0.35848383     0.03300
C1180       C  0.42661805  0.45217667  0.32772600    -0.11000
C1181       C  0.43855924  0.45041824  0.31763062    -0.01000
C1182       C  0.44489307  0.44450949  0.33789608    -0.06200
H1183       H  0.42246305  0.43773782  0.40225547     0.06300
H1184       H  0.44340794  0.45419321  0.29430325     0.09700
Br1185     Br  0.45961797  0.46349721  0.42225384    -0.05900
Br1186     Br  0.44512952  0.39414032  0.40101599    -0.02800
Br1187     Br  0.40370440  0.44789233  0.37488636     0.00000
Br1188     Br  0.46174871  0.44337939  0.32295685    -0.04300
C1189       C  0.87588140  0.57467458  0.07957437    -0.11700
C1190       C  0.87123433  0.55947803  0.08423110     0.03700
C1191       C  0.87928851  0.55345368  0.07027923    -0.12300
C1192       C  0.89191444  0.56223558  0.05158160     0.18600
C1193       C  0.89646987  0.57727837  0.04653812    -0.09300
C1194       C  0.88854034  0.58336857  0.06059180    -0.02300
H1195       H  0.87564196  0.54180128  0.07390310     0.05100
C1196       C  0.90002284  0.55538836  0.03725709     0.20600
H1197       H  0.89226551  0.59499061  0.05633086     0.10300
C1198       C  0.89344961  0.54517330  0.01236482    -0.15700
C1199       C  0.90048374  0.53794425  0.99909633     0.03300
C1200       C  0.91438684  0.54084972  0.01111642    -0.11000
C1201       C  0.92099638  0.55132439  0.03576252    -0.01000
C1202       C  0.91394368  0.55851096  0.04886909    -0.06200
H1203       H  0.88272276  0.54275616  0.50334063     0.06300
H1204       H  0.93163247  0.55379546  0.04542101     0.09700
Br1205     Br  0.91309941  0.58978020  0.01966613    -0.05900
Br1206     Br  0.85371638  0.54605260  0.10784205    -0.02800
Br1207     Br  0.89025579  0.52424507  0.46508236     0.00000
Br1208     Br  0.92346431  0.57199304  0.08356694    -0.04300
C1209       C  0.03969579  0.79364561  0.40487606    -0.11700
C1210       C  0.03759419  0.78759867  0.37382950     0.03700
C1211       C  0.02335962  0.78040058  0.36033637    -0.12300
C1212       C  0.01101715  0.77880481  0.37725824     0.18600
C1213       C  0.01295690  0.78435350  0.40840711    -0.09300
C1214       C  0.02718386  0.79182914  0.42177083    -0.02300
H1215       H  0.02187519  0.77593203  0.33650910     0.05100
C1216       C  0.99612667  0.77099841  0.36238391     0.20600
H1217       H  0.02841630  0.79615869  0.44566430     0.10300
C1218       C  0.98593592  0.75642606  0.37171632    -0.15700
C1219       C  0.97155971  0.74878681  0.35909729     0.03300
C1220       C  0.96704472  0.75587140  0.33673507    -0.11000
C1221       C  0.97751881  0.77038040  0.32677710    -0.01000
C1222       C  0.99194883  0.77790809  0.33931178    -0.06200
H1223       H  0.98920081  0.75097430  0.38908741     0.06300
H1224       H  0.97443176  0.77602319  0.30953449     0.09700
Br1225     Br  0.99648698  0.78203222  0.43355592    -0.05900
Br1226     Br  0.05340633  0.78867726  0.34806061    -0.02800
Br1227     Br  0.95903987  0.72867805  0.37348288     0.00000
Br1228     Br  0.00547042  0.79777731  0.32504531    -0.04300
C1229       C  0.91734896  0.69817753  0.25469243    -0.11700
C1230       C  0.90889682  0.68355394  0.26693112     0.03700
C1231       C  0.90436068  0.67131202  0.24672027    -0.12300
C1232       C  0.90816634  0.67324760  0.21443100     0.18600
C1233       C  0.91739368  0.68772570  0.20267273    -0.09300
C1234       C  0.92193219  0.69999628  0.22273099    -0.02300
H1235       H  0.89724329  0.66019775  0.25597384     0.05100
C1236       C  0.90073038  0.66025620  0.19286485     0.20600
H1237       H  0.92859441  0.71104348  0.21281679     0.10300
C1238       C  0.89040926  0.65981473  0.17103048    -0.15700
C1239       C  0.88177774  0.64718162  0.15252901     0.03300
C1240       C  0.88331373  0.63451219  0.15582390    -0.11000
C1241       C  0.89389108  0.63507190  0.17730794    -0.01000
C1242       C  0.90262404  0.64783625  0.19562465    -0.06200
H1243       H  0.88866906  0.66921143  0.16919693     0.06300
H1244       H  0.89527144  0.62549509  0.18010379     0.09700
Br1245     Br  0.92372374  0.69129012  0.15914319    -0.05900
Br1246     Br  0.90259447  0.67924083  0.31043953    -0.02800
Br1247     Br  0.86715605  0.64764233  0.12568279     0.00000
Br1248     Br  0.91706073  0.64791369  0.22386767    -0.04300
C1249       C  0.70367648  0.57705172  0.33590662    -0.11700
C1250       C  0.69097514  0.56740644  0.35418400     0.03700
C1251       C  0.67670401  0.56142357  0.34111158    -0.12300
C1252       C  0.67476944  0.56484041  0.31001204     0.18600
C1253       C  0.68731540  0.57474217  0.29208024    -0.09300
C1254       C  0.70157175  0.58078004  0.30505349    -0.02300
H1255       H  0.66705334  0.55391907  0.35515766     0.05100
C1256       C  0.65963651  0.55754317  0.29623691     0.20600
H1257       H  0.71108778  0.58821630  0.29060630     0.10300
C1258       C  0.65048846  0.56362688  0.30153298    -0.15700
C1259       C  0.63608138  0.55689446  0.28889172     0.03300
C1260       C  0.63051886  0.54364319  0.27075827    -0.11000
C1261       C  0.63988161  0.53774241  0.26523684    -0.01000
C1262       C  0.65428961  0.54457007  0.27776941    -0.06200
H1263       H  0.65463118  0.57373420  0.31540386     0.06300
H1264       H  0.63592889  0.52763797  0.25145851     0.09700
Br1265     Br  0.68545001  0.58009172  0.24956227    -0.05900
Br1266     Br  0.69216768  0.56230376  0.39732889    -0.02800
Br1267     Br  0.62502081  0.56684749  0.29637113     0.00000
Br1268     Br  0.66632626  0.53576849  0.26941282    -0.04300
C1269       C  0.77023607  0.58935872  0.29185498    -0.11700
C1270       C  0.76876994  0.57538039  0.28422994     0.03700
C1271       C  0.77815322  0.57449913  0.26141710    -0.12300
C1272       C  0.78924636  0.58728887  0.24625584     0.18600
C1273       C  0.79074114  0.60117587  0.25368758    -0.09300
C1274       C  0.78123808  0.60209848  0.27602943    -0.02300
H1275       H  0.77692477  0.56377134  0.25573873     0.05100
C1276       C  0.79915405  0.58603767  0.22260171     0.20600
H1277       H  0.78276296  0.61294923  0.28161345     0.10300
C1278       C  0.79784703  0.58876993  0.19062614    -0.15700
C1279       C  0.80785200  0.58908670  0.16794887     0.03300
C1280       C  0.81958275  0.58679322  0.17720616    -0.11000
C1281       C  0.82031740  0.58312033  0.20887619    -0.01000
C1282       C  0.81018748  0.58270176  0.23154204    -0.06200
H1283       H  0.78912271  0.59090920  0.18337927     0.06300
H1284       H  0.82916082  0.58120144  0.21630295     0.09700
Br1285     Br  0.80620456  0.61932574  0.23532227    -0.05900
Br1286     Br  0.75467454  0.55700619  0.30430462    -0.02800
Br1287     Br  0.80457374  0.59225567  0.12458992     0.00000
Br1288     Br  0.81237271  0.57836812  0.27467431    -0.04300
C1289       C  0.77054284  0.58638636  0.43393165    -0.11700
C1290       C  0.77044292  0.57291332  0.43834754     0.03700
C1291       C  0.78041665  0.57237046  0.45985949    -0.12300
C1292       C  0.79045944  0.58509376  0.47707421     0.18600
C1293       C  0.79011007  0.59833432  0.47346640    -0.09300
C1294       C  0.78027033  0.59889352  0.45201459    -0.02300
H1295       H  0.78065109  0.56214114  0.46249543     0.05100
C1296       C  0.80170916  0.58474047  0.49771939     0.20600
H1297       H  0.78036507  0.60928653  0.44911911     0.10300
C1298       C  0.81678185  0.59289003  0.48882962    -0.15700
C1299       C  0.82793899  0.59427538  0.00935958     0.03300
C1300       C  0.82401278  0.58709157  0.03905213    -0.11000
C1301       C  0.80886736  0.57824504  0.04706426    -0.01000
C1302       C  0.79776476  0.57729006  0.02699801    -0.06200
H1303       H  0.81988925  0.59859647  0.46620690     0.06300
H1304       H  0.80566324  0.57273375  0.06988204     0.09700
Br1305     Br  0.80289178  0.61600497  0.99726252    -0.05900
Br1306     Br  0.75799716  0.55545741  0.41374894    -0.02800
Br1307     Br  0.84824269  0.60594008  0.99545214     0.00000
Br1308     Br  0.77755204  0.56694387  0.04190459    -0.04300
C1309       C  0.89913485  0.73908218  0.37703688    -0.11700
C1310       C  0.89889724  0.75240465  0.38270069     0.03700
C1311       C  0.88914216  0.75264705  0.40530713    -0.12300
C1312       C  0.87932026  0.73983951  0.42222037     0.18600
C1313       C  0.87911393  0.72643558  0.41600445    -0.09300
C1314       C  0.88907298  0.72618710  0.39387687    -0.02300
H1315       H  0.88913703  0.76291924  0.40961010     0.05100
C1316       C  0.86933270  0.74079075  0.44597830     0.20600
H1317       H  0.88871457  0.71575409  0.38941145     0.10300
C1318       C  0.85795533  0.74331666  0.43587564    -0.15700
C1319       C  0.84830873  0.74428836  0.45782166     0.03300
C1320       C  0.84999463  0.74264423  0.99045401    -0.11000
C1321       C  0.86165509  0.74054191  0.00046124    -0.01000
C1322       C  0.87139419  0.73980383  0.47862552    -0.06200
H1323       H  0.85643950  0.74429451  0.41077385     0.06300
H1324       H  0.86316098  0.73938675  0.02549569     0.09700
Br1325     Br  0.86491295  0.70805829  0.43584604    -0.05900
Br1326     Br  0.91084843  0.77060641  0.35979506    -0.02800
Br1327     Br  0.83247451  0.74674821  0.44168339     0.00000
Br1328     Br  0.88757617  0.73787350  0.49460893    -0.04300
C1329       C  0.89970615  0.74634457  0.24232785    -0.11700
C1330       C  0.88547071  0.74332725  0.25234533     0.03700
C1331       C  0.87571073  0.74387438  0.23055475    -0.12300
C1332       C  0.87998758  0.74765459  0.19887725     0.18600
C1333       C  0.89462709  0.75195411  0.18945410    -0.09300
C1334       C  0.90440289  0.75125099  0.21119453    -0.02300
H1335       H  0.86458513  0.74094004  0.23812542     0.05100
C1336       C  0.86864037  0.74590238  0.17569261     0.20600
H1337       H  0.91536887  0.75378396  0.20332712     0.10300
C1338       C  0.86761730  0.75827410  0.16667253    -0.15700
C1339       C  0.85688096  0.75683388  0.14479797     0.03300
C1340       C  0.84685255  0.74270464  0.13164753    -0.11000
C1341       C  0.84777605  0.73029697  0.14141941    -0.01000
C1342       C  0.85857410  0.73181750  0.16310471    -0.06200
H1343       H  0.87523238  0.76910260  0.17667765     0.06300
H1344       H  0.84032825  0.71939468  0.13153585     0.09700
Br1345     Br  0.90135405  0.75801981  0.14676755    -0.05900
Br1346     Br  0.87883943  0.73861116  0.29562786    -0.02800
Br1347     Br  0.85645616  0.77460086  0.13478933     0.00000
Br1348     Br  0.85951247  0.71443793  0.17419675    -0.04300
C1349       C  0.75574384  0.63219512  0.41794892    -0.11700
C1350       C  0.75488133  0.64446009  0.40679696     0.03700
C1351       C  0.75976008  0.65709353  0.42602946    -0.12300
C1352       C  0.76630855  0.65809164  0.45573954     0.18600
C1353       C  0.76699245  0.64568671  0.46695936    -0.09300
C1354       C  0.76147048  0.63282801  0.44834510    -0.02300
H1355       H  0.75893784  0.66642001  0.41726097     0.05100
C1356       C  0.77327676  0.67240961  0.47358545     0.20600
H1357       H  0.76238094  0.62352915  0.45701348     0.10300
C1358       C  0.76892391  0.67281600  0.00508498    -0.15700
C1359       C  0.77643599  0.68581404  0.02344441     0.03300
C1360       C  0.78815792  0.69888366  0.00990297    -0.11000
C1361       C  0.79190712  0.69867881  0.47792631    -0.01000
C1362       C  0.78479778  0.68561678  0.45995805    -0.06200
H1363       H  0.75991364  0.66284742  0.01572241     0.06300
H1364       H  0.80103077  0.70856378  0.46725356     0.09700
Br1365     Br  0.77657684  0.64607247  0.00605991    -0.05900
Br1366     Br  0.74711586  0.64448496  0.36566667    -0.02800
Br1367     Br  0.77017558  0.68511401  0.06662313     0.00000
Br1368     Br  0.79234452  0.68627143  0.41791288    -0.04300
C1369       C  0.57846622  0.02804716  0.42892392    -0.11700
C1370       C  0.56779481  0.01344103  0.43854784     0.03700
C1371       C  0.56335235  0.00154773  0.41740448    -0.12300
C1372       C  0.56962184  0.00371380  0.38696793     0.18600
C1373       C  0.58098081  0.01804392  0.37812912    -0.09300
C1374       C  0.58523640  0.03003466  0.39891468    -0.02300
H1375       H  0.55459307  0.99056039  0.42445427     0.05100
C1376       C  0.56311150  0.99119322  0.36399016     0.20600
H1377       H  0.59362990  0.04104553  0.39112041     0.10300
C1378       C  0.55588307  0.99234818  0.33709933    -0.15700
C1379       C  0.54794920  0.98022655  0.31673229     0.03300
C1380       C  0.54721149  0.96652198  0.32303172    -0.11000
C1381       C  0.55485448  0.96555375  0.34950344    -0.01000
C1382       C  0.56268456  0.97768240  0.36994593    -0.06200
H1383       H  0.55585255  0.00258525  0.33270885     0.06300
H1384       H  0.55441045  0.95516714  0.35487903     0.09700
Br1385     Br  0.59097611  0.02177643  0.33790519    -0.05900
Br1386     Br  0.55835903  0.00872899  0.47953190    -0.02800
Br1387     Br  0.53720792  0.98292731  0.28296854     0.00000
Br1388     Br  0.57239157  0.97516416  0.40597536    -0.04300
C1389       C  0.46009010  0.08822944  0.26392235    -0.11700
C1390       C  0.46008383  0.09994384  0.24697037     0.03700
C1391       C  0.45405837  0.10798667  0.26099706    -0.12300
C1392       C  0.44799807  0.10459240  0.29165752     0.18600
C1393       C  0.44792199  0.09295509  0.30850873    -0.09300
C1394       C  0.45395521  0.08493579  0.29470793    -0.02300
H1395       H  0.45388559  0.11679691  0.24774938     0.05100
C1396       C  0.44079918  0.11254279  0.30490161     0.20600
H1397       H  0.45378607  0.07602396  0.30822692     0.10300
C1398       C  0.42590154  0.10739429  0.29746242    -0.15700
C1399       C  0.41839718  0.11421613  0.31016661     0.03300
C1400       C  0.42593263  0.12659332  0.33083271    -0.11000
C1401       C  0.44091468  0.13166115  0.33830129    -0.01000
C1402       C  0.44835569  0.12476315  0.32544830    -0.06200
H1403       H  0.42002560  0.09787561  0.28187014     0.06300
H1404       H  0.44694734  0.14113927  0.35389546     0.09700
Br1405     Br  0.43932264  0.08740619  0.35014199    -0.05900
Br1406     Br  0.46739181  0.10520181  0.20428681    -0.02800
Br1407     Br  0.39779932  0.10553952  0.29867750     0.00000
Br1408     Br  0.46883793  0.13240977  0.33625748    -0.04300
C1409       C  0.56058263  0.07383337  0.41255735    -0.11700
C1410       C  0.56323676  0.07495381  0.37961622     0.03700
C1411       C  0.55258848  0.07471907  0.35908078    -0.12300
C1412       C  0.53934621  0.07343180  0.37099169     0.18600
C1413       C  0.53702611  0.07293355  0.40393975    -0.09300
C1414       C  0.54758675  0.07309418  0.42438046    -0.02300
H1415       H  0.55438739  0.07501791  0.33368591     0.05100
C1416       C  0.52775235  0.07179426  0.34865145     0.20600
H1417       H  0.54545446  0.07225029  0.44970488     0.10300
C1418       C  0.51447494  0.05807212  0.34642227    -0.15700
C1419       C  0.50349637  0.05588375  0.32449946     0.03300
C1420       C  0.50596714  0.06752973  0.30358508    -0.11000
C1421       C  0.51916742  0.08139402  0.30667754    -0.01000
C1422       C  0.52991301  0.08361129  0.32914400    -0.06200
H1423       H  0.51267724  0.04899227  0.36181503     0.06300
H1424       H  0.52122190  0.09061452  0.29149087     0.09700
Br1425     Br  0.51956248  0.07186520  0.42212425    -0.05900
Br1426     Br  0.58031192  0.07522838  0.36135166    -0.02800
Br1427     Br  0.48549705  0.03683085  0.32518588     0.00000
Br1428     Br  0.54713599  0.10308382  0.33325864    -0.04300
C1429       C  0.50724398  0.06783745  0.15881810    -0.11700
C1430       C  0.50399179  0.05619927  0.13725127     0.03700
C1431       C  0.51514675  0.05711249  0.11711227    -0.12300
C1432       C  0.52960068  0.06949855  0.11803551     0.18600
C1433       C  0.53269051  0.08139482  0.13868867    -0.09300
C1434       C  0.52151530  0.08050845  0.15881153    -0.02300
H1435       H  0.51254082  0.04812341  0.10059163     0.05100
C1436       C  0.54104961  0.06997755  0.09627890     0.20600
H1437       H  0.52415426  0.08947784  0.17540646     0.10300
C1438       C  0.54621886  0.08018496  0.07120666    -0.15700
C1439       C  0.55611899  0.08022216  0.04857812     0.03300
C1440       C  0.56100401  0.06979289  0.05080099    -0.11000
C1441       C  0.55596116  0.05971701  0.07623039    -0.01000
C1442       C  0.54613734  0.05979135  0.09894360    -0.06200
H1443       H  0.54218056  0.08790312  0.06873634     0.06300
H1444       H  0.55960865  0.05167688  0.07837559     0.09700
Br1445     Br  0.55217310  0.09868549  0.14148144    -0.05900
Br1446     Br  0.48434219  0.03915915  0.13330304    -0.02800
Br1447     Br  0.56137355  0.09397975  0.01399423     0.00000
Br1448     Br  0.54012899  0.04589425  0.13334805    -0.04300
C1449       C  0.36861534  0.90937708  0.49528805    -0.11700
C1450       C  0.35651692  0.89606774  0.50749129     0.03700
C1451       C  0.34251138  0.88978039  0.49305036    -0.12300
C1452       C  0.34021026  0.89632036  0.46626791     0.18600
C1453       C  0.35219243  0.90958644  0.45417312    -0.09300
C1454       C  0.36614943  0.91596830  0.46866757    -0.02300
H1455       H  0.33331213  0.87966629  0.50277703     0.05100
C1456       C  0.32519253  0.88925370  0.45168646     0.20600
H1457       H  0.37519034  0.92610907  0.45866987     0.10300
C1458       C  0.31733856  0.89694152  0.45155728    -0.15700
C1459       C  0.30303648  0.89053576  0.43859881     0.03300
C1460       C  0.29613101  0.87593393  0.42600822    -0.11000
C1461       C  0.30412821  0.86835400  0.42576275    -0.01000
C1462       C  0.31851111  0.87487735  0.43834331    -0.06200
H1463       H  0.32240308  0.90804322  0.46155583     0.06300
H1464       H  0.29912842  0.85721505  0.41599985     0.09700
Br1465     Br  0.35029779  0.91914532  0.41709990    -0.05900
Br1466     Br  0.35805418  0.88574431  0.04360934    -0.02800
Br1467     Br  0.29402746  0.90272438  0.43748185     0.00000
Br1468     Br  0.32875238  0.86388235  0.43580415    -0.04300
C1469       C  0.43541622  0.92654040  0.45539525    -0.11700
C1470       C  0.42997513  0.91351198  0.43671472     0.03700
C1471       C  0.43933232  0.91219867  0.41453743    -0.12300
C1472       C  0.45409012  0.92368945  0.41051840     0.18600
C1473       C  0.45939792  0.93686095  0.42832172    -0.09300
C1474       C  0.45007995  0.93822074  0.45048735    -0.02300
H1475       H  0.43507051  0.90219743  0.40026200     0.05100
C1476       C  0.46364487  0.92212657  0.38657183     0.20600
H1477       H  0.45445377  0.94830151  0.46452453     0.10300
C1478       C  0.46377723  0.92695586  0.35562052    -0.15700
C1479       C  0.47359034  0.92694767  0.33286438     0.03300
C1480       C  0.48357768  0.92200469  0.34099904    -0.11000
C1481       C  0.48286086  0.91642184  0.37164510    -0.01000
C1482       C  0.47304462  0.91654675  0.39445066    -0.06200
H1483       H  0.45640550  0.93105772  0.34932798     0.06300
H1484       H  0.49038277  0.91256074  0.37829915     0.09700
Br1485     Br  0.47936541  0.95317901  0.42322874    -0.05900
Br1486     Br  0.40970460  0.89748131  0.43908108    -0.02800
Br1487     Br  0.47250958  0.93365206  0.29105951     0.00000
Br1488     Br  0.47323569  0.90963351  0.43642898    -0.04300
C1489       C  0.48692840  0.92100598  0.20554640    -0.11700
C1490       C  0.47160005  0.91059866  0.21002352     0.03700
C1491       C  0.46116986  0.90993177  0.18827207    -0.12300
C1492       C  0.46568873  0.91943260  0.16199222     0.18600
C1493       C  0.48095817  0.92949518  0.15702880    -0.09300
C1494       C  0.49141052  0.93025006  0.17875987    -0.02300
H1495       H  0.44941833  0.90231397  0.19244340     0.05100
C1496       C  0.45432206  0.91965647  0.14152677     0.20600
H1497       H  0.50309194  0.93824994  0.17489755     0.10300
C1498       C  0.45241160  0.93203820  0.14305176    -0.15700
C1499       C  0.44256697  0.93328407  0.12270872     0.03300
C1500       C  0.43434971  0.92195400  0.10038887    -0.11000
C1501       C  0.43560804  0.90914421  0.10004073    -0.01000
C1502       C  0.44557699  0.90795589  0.12040769    -0.06200
H1503       H  0.45883056  0.94090949  0.15980494     0.06300
H1504       H  0.42938941  0.90040158  0.08290659     0.09700
Br1505     Br  0.48804659  0.94250058  0.12098597    -0.05900
Br1506     Br  0.46388759  0.89791233  0.24658074    -0.02800
Br1507     Br  0.44057857  0.95060582  0.12680142     0.00000
Br1508     Br  0.44764327  0.89069514  0.11724293    -0.04300
C1509       C  0.44262834  0.02578933  0.18932613    -0.11700
C1510       C  0.43472517  0.02643780  0.16274514     0.03700
C1511       C  0.42692257  0.01389596  0.14332566    -0.12300
C1512       C  0.42667811  0.00059964  0.15004646     0.18600
C1513       C  0.43350053  0.99957970  0.17790629    -0.09300
C1514       C  0.44124216  0.01205322  0.19740895    -0.02300
H1515       H  0.42163327  0.01473025  0.12198768     0.05100
C1516       C  0.42172961  0.98897286  0.12528154     0.20600
H1517       H  0.44715241  0.01124614  0.21767097     0.10300
C1518       C  0.43109490  0.99170380  0.09908553    -0.15700
C1519       C  0.42823583  0.98050455  0.07705791     0.03300
C1520       C  0.41562096  0.96613350  0.08096335    -0.11000
C1521       C  0.40581508  0.96369560  0.10644605    -0.01000
C1522       C  0.40875919  0.97498157  0.12845265    -0.06200
H1523       H  0.44112058  0.00247638  0.09658126     0.06300
H1524       H  0.39601781  0.95283600  0.10983098     0.09700
Br1525     Br  0.43416068  0.98198016  0.18829785    -0.05900
Br1526     Br  0.43449240  0.04410839  0.15078295    -0.02800
Br1527     Br  0.44289085  0.98551442  0.04423589     0.00000
Br1528     Br  0.39503849  0.97076794  0.16283641    -0.04300
C1529       C  0.87095055  0.29329007  0.32913676    -0.11700
C1530       C  0.86755115  0.30394240  0.34136472     0.03700
C1531       C  0.87391958  0.31812012  0.32759094    -0.12300
C1532       C  0.88400923  0.32224548  0.30216579     0.18600
C1533       C  0.88803496  0.31195055  0.29107740    -0.09300
C1534       C  0.88132050  0.29760347  0.30405783    -0.02300
H1535       H  0.87107647  0.32607464  0.33702947     0.05100
C1536       C  0.89093855  0.33764724  0.28920107     0.20600
H1537       H  0.88449085  0.28986890  0.29479034     0.10300
C1538       C  0.89917926  0.34976176  0.30959445    -0.15700
C1539       C  0.90630025  0.36441973  0.29832970     0.03300
C1540       C  0.90556121  0.36721745  0.26583411    -0.11000
C1541       C  0.89667585  0.35517631  0.24576006    -0.01000
C1542       C  0.88925003  0.34052002  0.25722301    -0.06200
H1543       H  0.90009725  0.34780117  0.33448116     0.06300
H1544       H  0.89561837  0.35714655  0.22095278     0.09700
Br1545     Br  0.90351338  0.31727905  0.26006687    -0.05900
Br1546     Br  0.85471989  0.30029247  0.37729690    -0.02800
Br1547     Br  0.91591160  0.38017991  0.32888766     0.00000
Br1548     Br  0.87639052  0.32496097  0.22859262    -0.04300
C1549       C  0.96406142  0.21060922  0.10408844    -0.11700
C1550       C  0.96889294  0.22092834  0.12963930     0.03700
C1551       C  0.98363102  0.22758307  0.14026955    -0.12300
C1552       C  0.99386434  0.22443212  0.12574897     0.18600
C1553       C  0.98923947  0.21443123  0.10010035    -0.09300
C1554       C  0.97446373  0.20753114  0.08969698    -0.02300
H1555       H  0.98720697  0.23543804  0.15978883     0.05100
C1556       C  0.00944271  0.23210260  0.13706128     0.20600
H1557       H  0.97116306  0.19981367  0.06998035     0.10300
C1558       C  0.01347083  0.22597513  0.16197376    -0.15700
C1559       C  0.02810078  0.23317342  0.17358504     0.03300
C1560       C  0.03901064  0.24690085  0.16019679    -0.11000
C1561       C  0.03479994  0.25289648  0.13515176    -0.01000
C1562       C  0.02023600  0.24565124  0.12363060    -0.06200
H1563       H  0.00516652  0.21553760  0.17245872     0.06300
H1564       H  0.04288442  0.26331779  0.12426850     0.09700
Br1565     Br  0.00285547  0.21016858  0.07813315    -0.05900
Br1566     Br  0.95634052  0.22680446  0.15121674    -0.02800
Br1567     Br  0.03213420  0.22357888  0.20774877     0.00000
Br1568     Br  0.01554896  0.25470523  0.08950777    -0.04300
C1569       C  0.91368765  0.21982090  0.02613644    -0.11700
C1570       C  0.92414298  0.23082896  0.00544255     0.03700
C1571       C  0.91954925  0.23806308  0.98431592    -0.12300
C1572       C  0.90467299  0.23459071  0.48362533     0.18600
C1573       C  0.89439729  0.22410847  0.50526130    -0.09300
C1574       C  0.89897854  0.21694091  0.52644310    -0.02300
H1575       H  0.92753710  0.24621286  0.96793250     0.05100
C1576       C  0.89966905  0.24101789  0.45873772     0.20600
H1577       H  0.89076656  0.20842468  0.54190301     0.10300
C1578       C  0.89779200  0.23544395  0.42775084    -0.15700
C1579       C  0.89060063  0.23923523  0.40478796     0.03300
C1580       C  0.88483350  0.24855610  0.41307263    -0.11000
C1581       C  0.88803716  0.25518254  0.44340532    -0.01000
C1582       C  0.89548781  0.25158078  0.46602796    -0.06200
H1583       H  0.90139805  0.22761284  0.42176498     0.06300
H1584       H  0.88415765  0.26270622  0.45017001     0.09700
Br1585     Br  0.87369936  0.21824176  0.50499032    -0.05900
Br1586     Br  0.94481713  0.23657475  0.00518314    -0.02800
Br1587     Br  0.88880017  0.23090664  0.36319796     0.00000
Br1588     Br  0.89932650  0.26092369  0.50694593    -0.04300
C1589       C  0.85094716  0.10303592  0.25106873    -0.11700
C1590       C  0.84702875  0.10323370  0.21921347     0.03700
C1591       C  0.85748707  0.11380234  0.19834662    -0.12300
C1592       C  0.87190258  0.12405371  0.20867900     0.18600
C1593       C  0.87611108  0.12324582  0.23989086    -0.09300
C1594       C  0.86558244  0.11290345  0.26097793    -0.02300
H1595       H  0.85419406  0.11443833  0.17433055     0.05100
C1596       C  0.88180980  0.13645450  0.18764735     0.20600
H1597       H  0.86868892  0.11287781  0.28546027     0.10300
C1598       C  0.87988111  0.14881086  0.18577871    -0.15700
C1599       C  0.88854040  0.16058992  0.16513568     0.03300
C1600       C  0.89938271  0.16002532  0.14565882    -0.11000
C1601       C  0.90151228  0.14773750  0.14845125    -0.01000
C1602       C  0.89282955  0.13602341  0.16914098    -0.06200
H1603       H  0.87142526  0.14918466  0.20023602     0.06300
H1604       H  0.90973333  0.14700405  0.13389334     0.09700
Br1605     Br  0.89586542  0.13657913  0.25496612    -0.05900
Br1606     Br  0.82712629  0.09060091  0.20401565    -0.02800
Br1607     Br  0.88445581  0.17664803  0.16450048     0.00000
Br1608     Br  0.89604006  0.11944138  0.17064651    -0.04300
C1609       C  0.89472560  0.15660109  0.00537588    -0.11700
C1610       C  0.88220103  0.14332410  0.01610532     0.03700
C1611       C  0.87186022  0.13334166  0.49432884    -0.12300
C1612       C  0.87378344  0.13634996  0.46177112     0.18600
C1613       C  0.88641773  0.14944242  0.45089395    -0.09300
C1614       C  0.89686035  0.15943018  0.47268033    -0.02300
H1615       H  0.86228888  0.12317184  0.00280016     0.05100
C1616       C  0.86269197  0.12551125  0.43941075     0.20600
H1617       H  0.90630979  0.16968129  0.46417461     0.10300
C1618       C  0.84937392  0.12546444  0.43411463    -0.15700
C1619       C  0.83901636  0.11580605  0.41176405     0.03300
C1620       C  0.84181540  0.10564993  0.39487907    -0.11000
C1621       C  0.85503072  0.10553575  0.40118608    -0.01000
C1622       C  0.86545438  0.11542243  0.42285325    -0.06200
H1623       H  0.84723542  0.13327764  0.44680084     0.06300
H1624       H  0.85757582  0.09802210  0.38845968     0.09700
Br1625     Br  0.88942026  0.15426286  0.40657114    -0.05900
Br1626     Br  0.87899253  0.13806907  0.06026692    -0.02800
Br1627     Br  0.82179224  0.11768520  0.40490729     0.00000
Br1628     Br  0.88359458  0.11511379  0.42827176    -0.04300
C1629       C  0.70024667  0.12251526  0.08135745    -0.11700
C1630       C  0.68852119  0.12323529  0.09686408     0.03700
C1631       C  0.67435983  0.11650433  0.08305428    -0.12300
C1632       C  0.67150061  0.10879448  0.05420513     0.18600
C1633       C  0.68302603  0.10777615  0.03906085    -0.09300
C1634       C  0.69721597  0.11462786  0.05254958    -0.02300
H1635       H  0.66545877  0.11714537  0.09505147     0.05100
C1636       C  0.65637726  0.10163349  0.04047953     0.20600
H1637       H  0.70594696  0.11380034  0.04027092     0.10300
C1638       C  0.65396058  0.10729166  0.01242945    -0.15700
C1639       C  0.63988614  0.10047785  0.49822577     0.03300
C1640       C  0.62783629  0.08777766  0.01242547    -0.11000
C1641       C  0.63036866  0.08224388  0.04067236    -0.01000
C1642       C  0.64443855  0.08902306  0.05464743    -0.06200
H1643       H  0.66315291  0.11694871  0.50130492     0.06300
H1644       H  0.62135985  0.07252110  0.05203846     0.09700
Br1645     Br  0.67975441  0.09669539  0.50046740    -0.05900
Br1646     Br  0.69069254  0.13244389  0.13755676    -0.02800
Br1647     Br  0.63826917  0.10885954  0.45899396     0.00000
Br1648     Br  0.64694671  0.08028366  0.09239059    -0.04300
C1649       C  0.82323903  0.22468606  0.28988922    -0.11700
C1650       C  0.82344821  0.21254207  0.27518750     0.03700
C1651       C  0.81253796  0.20384394  0.25286274    -0.12300
C1652       C  0.80126715  0.20687530  0.24490516     0.18600
C1653       C  0.80093623  0.21884213  0.25955597    -0.09300
C1654       C  0.81185485  0.22762683  0.28171013    -0.02300
H1655       H  0.81274838  0.19453393  0.24179075     0.05100
C1656       C  0.79001611  0.19735388  0.22121071     0.20600
H1657       H  0.81136760  0.23680456  0.29267571     0.10300
C1658       C  0.77570425  0.18652591  0.23127772    -0.15700
C1659       C  0.76535963  0.17625552  0.20973545     0.03300
C1660       C  0.76932842  0.17683541  0.17747035    -0.11000
C1661       C  0.78351214  0.18804560  0.16741680    -0.01000
C1662       C  0.79380019  0.19823658  0.18892802    -0.06200
H1663       H  0.77278736  0.18570567  0.25619829     0.06300
H1664       H  0.78674967  0.18870017  0.14272998     0.09700
Br1665     Br  0.78592271  0.22371901  0.24967953    -0.05900
Br1666     Br  0.83770517  0.20663085  0.28517690    -0.02800
Br1667     Br  0.74671560  0.16085166  0.22641567     0.00000
Br1668     Br  0.81301228  0.21302441  0.17332086    -0.04300
C1669       C  0.76611192  0.17104642  0.03587296    -0.11700
C1670       C  0.76796611  0.18545979  0.03309640     0.03700
C1671       C  0.77814965  0.19554165  0.01113971    -0.12300
C1672       C  0.78652929  0.19162284  0.49149048     0.18600
C1673       C  0.78434742  0.17715125  0.49336474    -0.09300
C1674       C  0.77419923  0.16702256  0.51531180    -0.02300
H1675       H  0.77981433  0.20668038  0.00988251     0.05100
C1676       C  0.79797351  0.20302131  0.47034228     0.20600
H1677       H  0.77293919  0.15605520  0.51680684     0.10300
C1678       C  0.81303492  0.20789499  0.47591230    -0.15700
C1679       C  0.82413941  0.21838360  0.45602058     0.03300
C1680       C  0.82028165  0.22445730  0.43053030    -0.11000
C1681       C  0.80528688  0.22003824  0.42562876    -0.01000
C1682       C  0.79412236  0.20927810  0.44514250    -0.06200
H1683       H  0.81613780  0.20336921  0.49559152     0.06300
H1684       H  0.80219908  0.22443591  0.40569050     0.09700
Br1685     Br  0.79500570  0.17070534  0.46657378    -0.05900
Br1686     Br  0.75765901  0.19264846  0.05906048    -0.02800
Br1687     Br  0.84446369  0.22426008  0.46480493     0.00000
Br1688     Br  0.77374123  0.20267698  0.43513729    -0.04300
C1689       C  0.75414622  0.11562690  0.15994563    -0.11700
C1690       C  0.76610957  0.11357597  0.15067662     0.03700
C1691       C  0.77159520  0.10718002  0.17187101    -0.12300
C1692       C  0.76553816  0.10285596  0.20240062     0.18600
C1693       C  0.75340590  0.10448929  0.21137558    -0.09300
C1694       C  0.74773875  0.11066936  0.19016837    -0.02300
H1695       H  0.78103723  0.10607320  0.16492065     0.05100
C1696       C  0.77279029  0.09775762  0.22521415     0.20600
H1697       H  0.73860574  0.11211749  0.19794697     0.10300
C1698       C  0.78074877  0.10703596  0.25067706    -0.15700
C1699       C  0.78869622  0.10320186  0.27151323     0.03300
C1700       C  0.78884120  0.08979416  0.26690280    -0.11000
C1701       C  0.78062263  0.08041093  0.24158666    -0.01000
C1702       C  0.77261387  0.08426502  0.22093510    -0.06200
H1703       H  0.78107101  0.11753216  0.25388453     0.06300
H1704       H  0.78053018  0.07007474  0.23760268     0.09700
Br1705     Br  0.74445850  0.09879924  0.25266775    -0.05900
Br1706     Br  0.77628589  0.12004474  0.11062666    -0.02800
Br1707     Br  0.79987876  0.11740061  0.30411525     0.00000
Br1708     Br  0.76145887  0.07074388  0.18737415    -0.04300
C1709       C  0.57592567  0.70158191  0.41908723    -0.11700
C1710       C  0.58252200  0.69268498  0.42232595     0.03700
C1711       C  0.57413570  0.67815143  0.43394049    -0.12300
C1712       C  0.55911389  0.67210989  0.44251736     0.18600
C1713       C  0.55241933  0.68090329  0.43873643    -0.09300
C1714       C  0.56078581  0.69543837  0.42679644    -0.02300
H1715       H  0.57945955  0.67157358  0.43678391     0.05100
C1716       C  0.55105895  0.65694342  0.45674776     0.20600
H1717       H  0.55555968  0.70213342  0.42451873     0.10300
C1718       C  0.54599025  0.65516440  0.48827033    -0.15700
C1719       C  0.53973522  0.64132231  0.00357412     0.03300
C1720       C  0.53877332  0.62890409  0.48749560    -0.11000
C1721       C  0.54360072  0.63069380  0.45571337    -0.01000
C1722       C  0.54953584  0.64443553  0.44029222    -0.06200
H1723       H  0.54724904  0.66471747  0.00134756     0.06300
H1724       H  0.54266380  0.62129112  0.44256928     0.09700
Br1725     Br  0.53192685  0.67361653  0.94941286    -0.05900
Br1726     Br  0.60281514  0.69957471  0.41034324    -0.02800
Br1727     Br  0.53349599  0.64048296  0.04679810     0.00000
Br1728     Br  0.55503502  0.64541998  0.39642262    -0.04300
C1729       C  0.76418881  0.79756431  0.16156811    -0.11700
C1730       C  0.77592102  0.79727470  0.17780481     0.03700
C1731       C  0.78351221  0.79086410  0.16323590    -0.12300
C1732       C  0.77980071  0.78490930  0.13252743     0.18600
C1733       C  0.76843542  0.78553194  0.11607161    -0.09300
C1734       C  0.76074955  0.79177270  0.13056267    -0.02300
H1735       H  0.79217953  0.79027251  0.17612487     0.05100
C1736       C  0.78677386  0.77673904  0.11910707     0.20600
H1737       H  0.75194487  0.79199787  0.11743358     0.10300
C1738       C  0.78092988  0.76184195  0.12765594    -0.15700
C1739       C  0.78644983  0.75325424  0.11432078     0.03300
C1740       C  0.79830988  0.75968075  0.09200721    -0.11000
C1741       C  0.80411999  0.77470095  0.08350626    -0.01000
C1742       C  0.79843190  0.78319859  0.09680187    -0.06200
H1743       H  0.77178849  0.75677614  0.14448465     0.06300
H1744       H  0.81319950  0.77992421  0.06659637     0.09700
Br1745     Br  0.76269295  0.77749128  0.07410537    -0.05900
Br1746     Br  0.78182248  0.80477753  0.22015087    -0.02800
Br1747     Br  0.77673198  0.73278621  0.12739320     0.00000
Br1748     Br  0.80684541  0.80355046  0.08394679    -0.04300
C1749       C  0.63854008  0.75292852  0.34732607    -0.11700
C1750       C  0.65322276  0.76186288  0.35890435     0.03700
C1751       C  0.66536563  0.76698626  0.33803113    -0.12300
C1752       C  0.66324449  0.76336800  0.30569234     0.18600
C1753       C  0.64878604  0.75359910  0.29455809    -0.09300
C1754       C  0.63662579  0.74849643  0.31525207    -0.02300
H1755       H  0.67651261  0.77429759  0.34686506     0.05100
C1756       C  0.67611146  0.77066284  0.28370799     0.20600
H1757       H  0.62555684  0.74147320  0.30577125     0.10300
C1758       C  0.68746184  0.76714456  0.28507697    -0.15700
C1759       C  0.70011208  0.77445729  0.26556716     0.03300
C1760       C  0.70144606  0.78542442  0.24399112    -0.11000
C1761       C  0.68991388  0.78870418  0.24242373    -0.01000
C1762       C  0.67748691  0.78164954  0.26232958    -0.06200
H1763       H  0.68652869  0.75877196  0.30161174     0.06300
H1764       H  0.69088176  0.79735643  0.22668538     0.09700
Br1765     Br  0.64510598  0.74725351  0.25106093    -0.05900
Br1766     Br  0.65768575  0.76792408  0.40244522    -0.02800
Br1767     Br  0.71497113  0.76879948  0.26921219     0.00000
Br1768     Br  0.66329888  0.78829525  0.26113495    -0.04300
C1769       C  0.57622316  0.87157632  0.17443412    -0.11700
C1770       C  0.56402540  0.87081291  0.15800787     0.03700
C1771       C  0.55624850  0.87738075  0.17116905    -0.12300
C1772       C  0.56049747  0.88489209  0.20039433     0.18600
C1773       C  0.57280009  0.88591299  0.21636968    -0.09300
C1774       C  0.58048844  0.87929991  0.20346968    -0.02300
H1775       H  0.54697123  0.87680489  0.15836532     0.05100
C1776       C  0.55236917  0.89203578  0.21367842     0.20600
H1777       H  0.58986404  0.88017239  0.21641267     0.10300
C1778       C  0.54225048  0.88518949  0.23872908    -0.15700
C1779       C  0.53506796  0.89207462  0.25315975     0.03300
C1780       C  0.53791825  0.90616119  0.24235493    -0.11000
C1781       C  0.54809518  0.91291519  0.21711137    -0.01000
C1782       C  0.55529730  0.90602881  0.20295477    -0.06200
H1783       H  0.54007516  0.87448204  0.24737990     0.06300
H1784       H  0.55058642  0.92370228  0.20834059     0.09700
Br1785     Br  0.57979334  0.89667287  0.25549727    -0.05900
Br1786     Br  0.55810410  0.86197374  0.11670170    -0.02800
Br1787     Br  0.52173559  0.88154747  0.28758459     0.00000
Br1788     Br  0.56951338  0.91636851  0.16979047    -0.04300
C1789       C  0.59507232  0.76574617  0.47649713    -0.11700
C1790       C  0.58162853  0.76574916  0.48227922     0.03700
C1791       C  0.58111145  0.77508145  0.00560868    -0.12300
C1792       C  0.59362281  0.78429279  0.02401191     0.18600
C1793       C  0.60658447  0.78333920  0.02032007    -0.09300
C1794       C  0.60727433  0.77425491  0.49653593    -0.02300
H1795       H  0.57094225  0.77540234  0.00900314     0.05100
C1796       C  0.59312054  0.79531475  0.04564084     0.20600
H1797       H  0.61758887  0.77423018  0.49310434     0.10300
C1798       C  0.59395359  0.79395367  0.07854333    -0.15700
C1799       C  0.59423949  0.80464982  0.09925543     0.03300
C1800       C  0.59314349  0.81669031  0.08715837    -0.11000
C1801       C  0.59176322  0.81775616  0.05437234    -0.01000
C1802       C  0.59200564  0.80734699  0.03359742    -0.06200
H1803       H  0.59469889  0.78470231  0.08807990     0.06300
H1804       H  0.59132064  0.82716401  0.04475672     0.09700
Br1805     Br  0.62389487  0.79479589  0.04602760    -0.05900
Br1806     Br  0.56346143  0.75347929  0.45954166    -0.02800
Br1807     Br  0.59608656  0.80225581  0.14386540     0.00000
Br1808     Br  0.59210621  0.81078060  0.48886913    -0.04300
C1809       C  0.60158480  0.82894313  0.22311228    -0.11700
C1810       C  0.59008115  0.82228488  0.24592300     0.03700
C1811       C  0.58977418  0.81183414  0.26722515    -0.12300
C1812       C  0.60073111  0.80777748  0.26610561     0.18600
C1813       C  0.61240331  0.81464112  0.24387132    -0.09300
C1814       C  0.61284233  0.82523717  0.22284192    -0.02300
H1815       H  0.58089891  0.80677677  0.28464890     0.05100
C1816       C  0.59990859  0.79653560  0.28866941     0.20600
H1817       H  0.62165425  0.83008528  0.20523825     0.10300
C1818       C  0.59146371  0.78134444  0.28110414    -0.15700
C1819       C  0.59055820  0.77046058  0.30207113     0.03300
C1820       C  0.59814278  0.77480047  0.33141232    -0.11000
C1821       C  0.60646217  0.79007451  0.33878876    -0.01000
C1822       C  0.60741962  0.80085376  0.31777116    -0.06200
H1823       H  0.58569805  0.77796339  0.25860473     0.06300
H1824       H  0.61240802  0.79374504  0.36103925     0.09700
Br1825     Br  0.62760649  0.80941651  0.24060044    -0.05900
Br1826     Br  0.57478817  0.82736425  0.24973646    -0.02800
Br1827     Br  0.57939601  0.75010001  0.28836157     0.00000
Br1828     Br  0.61929280  0.82139117  0.32967418    -0.04300
C1829       C  0.76056835  0.96391023  0.41577571    -0.11700
C1830       C  0.77180650  0.97605916  0.43304172     0.03700
C1831       C  0.77896448  0.99037064  0.41974723    -0.12300
C1832       C  0.77509053  0.99289991  0.38955519     0.18600
C1833       C  0.76377443  0.98091717  0.37259752    -0.09300
C1834       C  0.75666612  0.96663118  0.38565252    -0.02300
H1835       H  0.78753179  0.99961902  0.43312585     0.05100
C1836       C  0.78267680  0.00816330  0.37638491     0.20600
H1837       H  0.74805568  0.95757762  0.37194375     0.10300
C1838       C  0.79410765  0.01236296  0.35395113    -0.15700
C1839       C  0.80135636  0.02668801  0.34071746     0.03300
C1840       C  0.79721357  0.03719391  0.35021113    -0.11000
C1841       C  0.78564339  0.03278490  0.37260124    -0.01000
C1842       C  0.77838215  0.01845354  0.38549778    -0.06200
H1843       H  0.79732774  0.00439632  0.34653953     0.06300
H1844       H  0.78214340  0.04051082  0.38017802     0.09700
Br1845     Br  0.75741243  0.98361869  0.33180568    -0.05900
Br1846     Br  0.77757875  0.97417282  0.47516759    -0.02800
Br1847     Br  0.81640054  0.03076924  0.30933671     0.00000
Br1848     Br  0.76230513  0.01322324  0.41477291    -0.04300
C1849       C  0.74322903  0.89473070  0.01401892    -0.11700
C1850       C  0.73103026  0.88592528  0.03407998     0.03700
C1851       C  0.73176180  0.87603244  0.05517094    -0.12300
C1852       C  0.74440893  0.87456381  0.05619695     0.18600
C1853       C  0.75652040  0.88318096  0.03582295    -0.09300
C1854       C  0.75595905  0.89339111  0.51523761    -0.02300
H1855       H  0.72240466  0.86939989  0.07076966     0.05100
C1856       C  0.74459306  0.86388534  0.07868220     0.20600
H1857       H  0.76519213  0.89981397  0.49921056     0.10300
C1858       C  0.73526771  0.84860202  0.07329650    -0.15700
C1859       C  0.73443988  0.83814184  0.09516956     0.03300
C1860       C  0.74302309  0.84303232  0.12314155    -0.11000
C1861       C  0.75253202  0.85837708  0.12808141    -0.01000
C1862       C  0.75329010  0.86877536  0.10627436    -0.06200
H1863       H  0.72855637  0.84481621  0.05201252     0.06300
H1864       H  0.75909521  0.86237229  0.14953097     0.09700
Br1865     Br  0.77354403  0.88065419  0.03394914    -0.05900
Br1866     Br  0.71323935  0.88719554  0.03408571    -0.02800
Br1867     Br  0.72178245  0.81749073  0.08478611     0.00000
Br1868     Br  0.76571309  0.88952811  0.11606717    -0.04300
C1869       C  0.74842497  0.84787647  0.26461397    -0.11700
C1870       C  0.76261046  0.86037846  0.27037164     0.03700
C1871       C  0.76396121  0.87160063  0.29101845    -0.12300
C1872       C  0.75134230  0.87049572  0.30595505     0.18600
C1873       C  0.73727617  0.85790254  0.30053436    -0.09300
C1874       C  0.73592894  0.84678816  0.28003432    -0.02300
H1875       H  0.77481341  0.88130961  0.29505292     0.05100
C1876       C  0.75270558  0.88237887  0.32728413     0.20600
H1877       H  0.72496377  0.83723940  0.27594852     0.10300
C1878       C  0.74622148  0.89079516  0.31826880    -0.15700
C1879       C  0.74432264  0.89979811  0.34026030     0.03300
C1880       C  0.74925096  0.90067912  0.37167856    -0.11000
C1881       C  0.75685499  0.89320860  0.37987833    -0.01000
C1882       C  0.75846378  0.88396564  0.35805005    -0.06200
H1883       H  0.74189590  0.88971239  0.29447635     0.06300
H1884       H  0.76075563  0.89382549  0.40392429     0.09700
Br1885     Br  0.71951221  0.85525197  0.32082016    -0.05900
Br1886     Br  0.78022901  0.86327827  0.24904422    -0.02800
Br1887     Br  0.73487213  0.91050449  0.32611794     0.00000
Br1888     Br  0.76721494  0.87259748  0.37220673    -0.04300
C1889       C  0.69986917  0.91140230  0.48910219    -0.11700
C1890       C  0.69822107  0.92168391  0.00815507     0.03700
C1891       C  0.68560875  0.91676474  0.02756702    -0.12300
C1892       C  0.67466114  0.90164829  0.02880437     0.18600
C1893       C  0.67624908  0.89140480  0.00968587    -0.09300
C1894       C  0.68863707  0.89634758  0.48971547    -0.02300
H1895       H  0.68443860  0.92471810  0.04213566     0.05100
C1896       C  0.66179861  0.89654469  0.05063370     0.20600
H1897       H  0.68987535  0.88823793  0.47587249     0.10300
C1898       C  0.64766082  0.89193419  0.03817416    -0.15700
C1899       C  0.63493697  0.88516350  0.05750978     0.03300
C1900       C  0.63626245  0.88265453  0.09004342    -0.11000
C1901       C  0.65060430  0.88830912  0.10274594    -0.01000
C1902       C  0.66328228  0.89520333  0.08340075    -0.06200
H1903       H  0.64648834  0.89324150  0.01305320     0.06300
H1904       H  0.65197827  0.88672128  0.12760795     0.09700
Br1905     Br  0.66237199  0.87040169  0.51197006    -0.05900
Br1906     Br  0.71263996  0.94256824  0.00822918    -0.02800
Br1907     Br  0.61628203  0.87961068  0.03754109     0.00000
Br1908     Br  0.68227954  0.90159246  0.10243189    -0.04300
In1909     In  0.73893060  0.91997280  0.94543337     1.36900
C1910       C  0.74213735  0.90409747  0.98961139     0.77800
O1911       O  0.72642544  0.92520090  0.98152512    -0.60600
O1912       O  0.71399044  0.90886862  0.94642720    -0.51500
C1913       C  0.75276291  0.94832639  0.92762687     0.70500
O1914       O  0.75707864  0.94389353  0.95097686    -0.46400
C1915       C  0.74575257  0.90826970  0.89697328     0.75200
O1916       O  0.75180844  0.91770269  0.98556336    -0.58300
O1917       O  0.73362727  0.90832924  0.89836244    -0.48300
O1918       O  0.73126214  0.89884958  0.97085923    -0.54700
C1919       C  0.71375652  0.91554484  0.97141502     0.85400
O1920       O  0.74124488  0.93820900  0.91419160    -0.56600
O1921       O  0.75442028  0.91453065  0.91996252    -0.59900
In1922     In  0.60071167  0.85205725  0.64461166     1.36900
C1923       C  0.59524711  0.82907955  0.60778556     0.77800
O1924       O  0.61024289  0.86486748  0.59958519    -0.60600
O1925       O  0.62441310  0.87069501  0.63938649    -0.51500
C1926       C  0.58485478  0.86466345  0.66254658     0.70500
O1927       O  0.57973516  0.85363774  0.64388264    -0.46400
C1928       C  0.60126986  0.83831630  0.69716494     0.75200
O1929       O  0.58734859  0.83516466  0.60645491    -0.58300
O1930       O  0.61296081  0.84869846  0.68456381    -0.48300
O1931       O  0.60562997  0.83474982  0.62766467    -0.54700
C1932       C  0.62322321  0.87277024  0.61028771     0.85400
O1933       O  0.59802775  0.86918714  0.67140574    -0.56600
O1934       O  0.58931680  0.83574085  0.68403726    -0.59900
In1935     In  0.73971904  0.81583625  0.69721419     1.36900
C1936       C  0.74577721  0.83634879  0.74097286     0.77800
O1937       O  0.75209438  0.83653061  0.66870251    -0.60600
O1938       O  0.73077737  0.81996395  0.65251019    -0.51500
C1939       C  0.75528886  0.80372359  0.67556405     0.70500
O1940       O  0.75898532  0.81179260  0.70009010    -0.46400
C1941       C  0.71513010  0.79484858  0.72528905     0.75200
O1942       O  0.75487636  0.83203020  0.73436509    -0.58300
O1943       O  0.71497328  0.80151446  0.70049509    -0.48300
O1944       O  0.73380356  0.82996924  0.72558535    -0.54700
C1945       C  0.74196418  0.83276554  0.64839702     0.85400
O1946       O  0.74333247  0.80148958  0.66311812    -0.56600
O1947       O  0.72797069  0.79798864  0.73409470    -0.59900
In1948     In  0.60092086  0.74629481  0.89567459     1.36900
C1949       C  0.59846902  0.76416791  0.85436163     0.77800
O1950       O  0.58725299  0.75177589  0.92759094    -0.60600
O1951       O  0.60895168  0.75792833  0.94298852    -0.51500
C1952       C  0.58480963  0.71744261  0.90976563     0.70500
O1953       O  0.57975040  0.72389452  0.89289076    -0.46400
C1954       C  0.62505585  0.74940776  0.86637806     0.75200
O1955       O  0.58970889  0.75020612  0.85396552    -0.58300
O1956       O  0.62545384  0.75437750  0.89400995    -0.48300
O1957       O  0.60796323  0.76865552  0.87628420    -0.54700
C1958       C  0.59705448  0.75807441  0.94861155     0.85400
O1959       O  0.59802897  0.72574436  0.91890606    -0.56600
O1960       O  0.61210146  0.74193041  0.85505955    -0.59900
In1961     In  0.74410373  0.14399974  0.61222250     1.36900
C1962       C  0.75982568  0.16523984  0.65426646     0.77800
O1963       O  0.74050590  0.12834588  0.65195373    -0.60600
O1964       O  0.75432262  0.12951486  0.61369994    -0.51500
C1965       C  0.71571437  0.12991741  0.59375489     0.70500
O1966       O  0.72072113  0.14010594  0.61444183    -0.46400
C1967       C  0.75716318  0.16062621  0.56162827     0.75200
O1968       O  0.74571959  0.15823939  0.65452795    -0.58300
O1969       O  0.75735369  0.14878849  0.56722979    -0.48300
O1970       O  0.76553381  0.16150299  0.63230615    -0.54700
C1971       C  0.74932494  0.12443519  0.64096154     0.85400
O1972       O  0.72520221  0.12677297  0.58341864    -0.56600
O1973       O  0.74943418  0.16320820  0.58091944    -0.59900
In1974     In  0.81764690  0.08093906  0.81739847     1.36900
C1975       C  0.83951657  0.09455809  0.77518667     0.77800
O1976       O  0.80238166  0.07706578  0.77632765    -0.60600
O1977       O  0.80332041  0.09134913  0.81312226    -0.51500
C1978       C  0.80451512  0.05270092  0.83778565     0.70500
O1979       O  0.81596707  0.05846052  0.82040376    -0.46400
C1980       C  0.83219812  0.09596113  0.86882024     0.75200
O1981       O  0.82965776  0.08100996  0.77241066    -0.58300
O1982       O  0.82082986  0.09603979  0.85866442    -0.48300
O1983       O  0.83850354  0.10074370  0.79995055    -0.54700
C1984       C  0.79827463  0.08587949  0.78618698     0.85400
O1985       O  0.79977496  0.06141842  0.84429196    -0.56600
O1986       O  0.83537761  0.08743830  0.85358752    -0.59900
In1987     In  0.92046620  0.18877247  0.57119849     1.36900
C1988       C  0.90443272  0.16819492  0.52822644     0.77800
O1989       O  0.91582476  0.16925479  0.60072075    -0.60600
O1990       O  0.90684328  0.18264942  0.61577370    -0.51500
C1991       C  0.94849187  0.20289025  0.59192930     0.70500
O1992       O  0.94399819  0.19312112  0.57023202    -0.46400
C1993       C  0.91710895  0.20980126  0.54423469     0.75200
O1994       O  0.91854580  0.17516517  0.52724159    -0.58300
O1995       O  0.91019396  0.20322622  0.56926310    -0.48300
O1996       O  0.89893075  0.17193279  0.55057306    -0.54700
C1997       C  0.90771107  0.17110907  0.62045697     0.85400
O1998       O  0.93859704  0.20542321  0.60235639    -0.56600
O1999       O  0.92631948  0.20618478  0.53441167    -0.59900
In2000     In  0.85148586  0.24976317  0.86272938     1.36900
C2001       C  0.83149927  0.23390829  0.90684903     0.77800
O2002       O  0.83167860  0.24260700  0.83204624    -0.60600
O2003       O  0.84585177  0.23404240  0.82124082    -0.51500
C2004       C  0.86405518  0.27777263  0.84162656     0.70500
O2005       O  0.85499023  0.27290811  0.86462324    -0.46400
C2006       C  0.87398924  0.25009716  0.89294798     0.75200
O2007       O  0.83381878  0.24658028  0.89849766    -0.58300
O2008       O  0.86911565  0.24343723  0.86674968    -0.48300
O2009       O  0.83939971  0.22961750  0.89287000    -0.54700
C2010       C  0.83397801  0.23402958  0.81483938     0.85400
O2011       O  0.86673100  0.26820239  0.82968203    -0.56600
O2012       O  0.86794099  0.25737275  0.90217849    -0.59900
In2013     In  0.41168044  0.93006283  0.53082584     1.36900
C2014       C  0.42588772  0.92426393  0.57541207     0.77800
O2015       O  0.41705534  0.91680691  0.99707029    -0.60600
O2016       O  0.42813916  0.94019635  0.99051529    -0.51500
C2017       C  0.38389586  0.91667226  0.50886085     0.70500
O2018       O  0.38783133  0.91127280  0.53103618    -0.46400
C2019       C  0.41327539  0.95322559  0.56136002     0.75200
O2020       O  0.41287692  0.91456948  0.56687840    -0.58300
O2021       O  0.41977579  0.95445034  0.53516342    -0.48300
O2022       O  0.43140991  0.93641503  0.56071440    -0.54700
C2023       C  0.42649057  0.92787268  0.98133949     0.85400
O2024       O  0.39422574  0.92896349  0.99851983    -0.56600
O2025       O  0.40509365  0.93996102  0.57057589    -0.59900
In2026     In  0.47775369  0.06295776  0.72996529     1.36900
C2027       C  0.49646575  0.06629316  0.68345780     0.77800
O2028       O  0.49804077  0.07623544  0.75938022    -0.60600
O2029       O  0.48359415  0.05372047  0.77199307    -0.51500
C2030       C  0.46625692  0.07918212  0.75082830     0.70500
O2031       O  0.47430002  0.08256137  0.72622289    -0.46400
C2032       C  0.45412335  0.03933058  0.70581481     0.75200
O2033       O  0.49430366  0.07674475  0.69180004    -0.58300
O2034       O  0.46031355  0.03876645  0.73109115    -0.48300
O2035       O  0.48904902  0.05437860  0.69875015    -0.54700
C2036       C  0.49549078  0.06571935  0.77788430     0.85400
O2037       O  0.46400659  0.06738579  0.76413145    -0.56600
O2038       O  0.45952755  0.05222164  0.69431777    -0.59900
In2039     In  0.51650191  0.92811237  0.77713311     1.36900
C2040       C  0.49544561  0.92379121  0.81877023     0.77800
O2041       O  0.53235752  0.93996183  0.81685892    -0.60600
O2042       O  0.53247231  0.95271187  0.77755276    -0.51500
C2043       C  0.53045976  0.91404673  0.75594500     0.70500
O2044       O  0.52123616  0.90919217  0.77871974    -0.46400
C2045       C  0.49820734  0.92328866  0.72949798     0.75200
O2046       O  0.50107145  0.91543291  0.81823655    -0.58300
O2047       O  0.50986897  0.93577643  0.73387439    -0.48300
O2048       O  0.50096298  0.93421991  0.79889028    -0.54700
C2049       C  0.53729664  0.95274696  0.80501617     0.85400
O2050       O  0.53275157  0.92629726  0.74495754    -0.56600
O2051       O  0.49669299  0.91313497  0.74803999    -0.59900
In2052     In  0.58485616  0.06555824  0.97719978     1.36900
C2053       C  0.56982708  0.07132939  0.93502575     0.77800
O2054       O  0.58965878  0.05446147  0.93694938    -0.60600
O2055       O  0.57611807  0.04098925  0.97465151    -0.51500
C2056       C  0.61259254  0.07991150  0.49892983     0.70500
O2057       O  0.60822175  0.08512841  0.97723119    -0.46400
C2058       C  0.57038835  0.06849316  0.52595929     0.75200
O2059       O  0.58393271  0.07851763  0.93519012    -0.58300
O2060       O  0.56973156  0.05628891  0.51945589    -0.48300
O2061       O  0.56381421  0.06151152  0.95612321    -0.54700
C2062       C  0.58168261  0.04146627  0.94769504     0.85400
O2063       O  0.60273126  0.06731079  0.50891564    -0.56600
O2064       O  0.57925783  0.07929404  0.50876609    -0.59900
In2065     In  0.81856892  0.73676496  0.55740162     1.36900
C2066       C  0.83901767  0.74131464  0.51441674     0.77800
O2067       O  0.83738400  0.75121173  0.58955026    -0.60600
O2068       O  0.82532048  0.72797894  0.59876168    -0.51500
C2069       C  0.80517977  0.75131655  0.57835601     0.70500
O2070       O  0.81506985  0.75651342  0.55687598    -0.46400
C2071       C  0.79768822  0.71251605  0.52849504     0.75200
O2072       O  0.83257173  0.74890545  0.51454158    -0.58300
O2073       O  0.80117168  0.71238157  0.55713603    -0.48300
O2074       O  0.83525137  0.73201736  0.53660937    -0.54700
C2075       C  0.83609870  0.74063004  0.60638126     0.85400
O2076       O  0.80197810  0.73857814  0.58787980    -0.56600
O2077       O  0.80403554  0.72522607  0.51585719    -0.59900
In2078     In  0.74737027  0.59498744  0.86663852     1.36900
C2079       C  0.76185837  0.58854985  0.90916033     0.77800
O2080       O  0.75176564  0.58066381  0.83388050    -0.60600
O2081       O  0.76318949  0.60385183  0.82511664    -0.51500
C2082       C  0.71917499  0.58336836  0.84768451     0.70500
O2083       O  0.72286797  0.57776902  0.86990984    -0.46400
C2084       C  0.75164115  0.61891711  0.89826999     0.75200
O2085       O  0.74836898  0.57932538  0.90256227    -0.58300
O2086       O  0.75575482  0.61959484  0.86970432    -0.48300
O2087       O  0.76760415  0.60049100  0.89354309    -0.54700
C2088       C  0.76135678  0.59127790  0.81733720     0.85400
O2089       O  0.72994536  0.59480181  0.83543634    -0.56600
O2090       O  0.74460180  0.60595677  0.90967170    -0.59900
In2091     In  0.92360994  0.73559905  0.80326211     1.36900
C2092       C  0.90882251  0.74278636  0.76309578     0.77800
O2093       O  0.92770364  0.72456976  0.76180073    -0.60600
O2094       O  0.91528440  0.71112659  0.80064930    -0.51500
C2095       C  0.95158432  0.74868288  0.82422871     0.70500
O2096       O  0.94762943  0.75428745  0.80248315    -0.46400
C2097       C  0.90878300  0.73795415  0.85236349     0.75200
O2098       O  0.92287094  0.75057590  0.76522306    -0.58300
O2099       O  0.90752283  0.72568200  0.84401782    -0.48300
O2100       O  0.90285525  0.73133129  0.78021601    -0.54700
C2101       C  0.92038529  0.71161106  0.77317846     0.85400
O2102       O  0.94116843  0.73655805  0.83481777    -0.56600
O2103       O  0.91849991  0.74900711  0.83700904    -0.59900
In2104     In  0.85288481  0.59500441  0.61273346     1.36900
C2105       C  0.83166150  0.58944456  0.65480477     0.77800
O2106       O  0.86951754  0.60781107  0.65098587    -0.60600
O2107       O  0.86725320  0.61980306  0.61292708    -0.51500
C2108       C  0.86766509  0.58179286  0.59252997     0.70500
O2109       O  0.85785261  0.57624401  0.61408626    -0.46400
C2110       C  0.83517122  0.58963907  0.56348625     0.75200
O2111       O  0.83858323  0.58231040  0.65505048    -0.58300
O2112       O  0.84694291  0.60204608  0.56750892    -0.48300
O2113       O  0.83601246  0.59941537  0.63393689    -0.54700
C2114       C  0.87325839  0.62036822  0.63923541     0.85400
O2115       O  0.87000994  0.59416501  0.58232594    -0.56600
O2116       O  0.83303502  0.57982694  0.58366369    -0.59900
In2117     In  0.41665689  0.47922070  0.77428037     1.36900
C2118       C  0.43343218  0.50189529  0.81231737     0.77800
O2119       O  0.41432832  0.46612555  0.81770704    -0.60600
O2120       O  0.42598833  0.46388958  0.77864888    -0.51500
C2121       C  0.38767392  0.46404528  0.76021172     0.70500
O2122       O  0.39346005  0.47561551  0.77726645    -0.46400
C2123       C  0.42805060  0.49440304  0.72103616     0.75200
O2124       O  0.41934936  0.49486349  0.81438548    -0.58300
O2125       O  0.42951552  0.48343734  0.72857177    -0.48300
O2126       O  0.43859632  0.49740338  0.79066017    -0.54700
C2127       C  0.42190342  0.46064824  0.80728065     0.85400
O2128       O  0.39678471  0.46014768  0.75102878    -0.56600
O2129       O  0.41994736  0.49670994  0.73977373    -0.59900
In2130     In  0.48529498  0.41248852  0.98729593     1.36900
C2131       C  0.50584940  0.42584190  0.94300591     0.77800
O2132       O  0.46880705  0.40763646  0.94863961    -0.60600
O2133       O  0.47265518  0.42468709  0.98125820    -0.51500
C2134       C  0.47177548  0.38453970  0.50879620     0.70500
O2135       O  0.48251850  0.38961805  0.98941304    -0.46400
C2136       C  0.50169079  0.42681431  0.53711562     0.75200
O2137       O  0.49671439  0.41200255  0.94195967    -0.58300
O2138       O  0.48982126  0.42677761  0.53043575    -0.48300
O2139       O  0.50492547  0.43235512  0.96731792    -0.54700
C2140       C  0.46645042  0.41801886  0.95582802     0.85400
O2141       O  0.46784083  0.39379102  0.51656992    -0.56600
O2142       O  0.50448927  0.41869656  0.51941068    -0.59900
In2143     In  0.52124916  0.58633854  0.52498674     1.36900
C2144       C  0.50000183  0.56865455  0.56503882     0.77800
O2145       O  0.50281917  0.57975401  0.99066846    -0.60600
O2146       O  0.51680262  0.57047551  0.98431454    -0.51500
C2147       C  0.53288443  0.61399696  0.00243969     0.70500
O2148       O  0.52413939  0.60941892  0.52607641    -0.46400
C2149       C  0.54298268  0.58681881  0.55898054     0.75200
O2150       O  0.50236384  0.58158987  0.55885884    -0.58300
O2151       O  0.54012575  0.58185110  0.53087505    -0.48300
O2152       O  0.50833404  0.56502885  0.55063794    -0.54700
C2153       C  0.50560233  0.57111926  0.97489401     0.85400
O2154       O  0.53601758  0.60457392  0.99155501    -0.56600
O2155       O  0.53563383  0.59279060  0.56825292    -0.59900
In2156     In  0.58700477  0.52033095  0.73741471     1.36900
C2157       C  0.57213597  0.49786308  0.69781372     0.77800
O2158       O  0.58239338  0.50178569  0.77016341    -0.60600
O2159       O  0.57083327  0.51345454  0.77812030    -0.51500
C2160       C  0.61506490  0.53553514  0.75812737     0.70500
O2161       O  0.61091378  0.52565983  0.73679018    -0.46400
C2162       C  0.58289194  0.53985525  0.70540269     0.75200
O2163       O  0.58624655  0.50465168  0.69909808    -0.58300
O2164       O  0.57950884  0.53724619  0.73445427    -0.48300
O2165       O  0.56609765  0.50301654  0.71577562    -0.54700
C2166       C  0.57243330  0.50260386  0.78572681     0.85400
O2167       O  0.60484296  0.53761544  0.76829645    -0.56600
O2168       O  0.58914795  0.53323264  0.69368422    -0.59900
In2169     In  0.14767643  0.74769503  0.64891868     1.36900
C2170       C  0.16836990  0.76433598  0.60630990     0.77800
O2171       O  0.13122293  0.74302401  0.61020620    -0.60600
O2172       O  0.13264732  0.75725539  0.64789518    -0.51500
C2173       C  0.13341925  0.71943768  0.66830393     0.70500
O2174       O  0.14377328  0.72423731  0.64780741    -0.46400
C2175       C  0.16405260  0.75959341  0.70034997     0.75200
O2176       O  0.16189247  0.75024463  0.60576346    -0.58300
O2177       O  0.15279121  0.76075456  0.69412784    -0.48300
O2178       O  0.16449654  0.76957194  0.62899174    -0.54700
C2179       C  0.12707693  0.75164915  0.62128019     0.85400
O2180       O  0.13020182  0.72901266  0.67748113    -0.56600
O2181       O  0.16655756  0.75199148  0.68052863    -0.59900
In2182     In  0.08127675  0.81700657  0.94773040     1.36900
C2183       C  0.09069436  0.83591213  0.99592349     0.77800
O2184       O  0.07425061  0.79828357  0.98235806    -0.60600
O2185       O  0.09330554  0.80438817  0.95383768    -0.51500
C2186       C  0.05454789  0.80191304  0.92029477     0.70500
O2187       O  0.05675170  0.80915223  0.94579111    -0.46400
C2188       C  0.09854668  0.83632019  0.90358517     0.75200
O2189       O  0.07904424  0.83297995  0.98081739    -0.58300
O2190       O  0.09742039  0.82373957  0.90687584    -0.48300
O2191       O  0.09699755  0.82891757  0.98685043    -0.54700
C2192       C  0.08504983  0.79634327  0.97614277     0.85400
O2193       O  0.06604151  0.80236919  0.90928413    -0.56600
O2194       O  0.09065204  0.83882323  0.92248852    -0.59900
In2195     In  0.25256291  0.85387798  0.89353578     1.36900
C2196       C  0.23710138  0.83081498  0.85572155     0.77800
O2197       O  0.24730710  0.83636277  0.92979134    -0.60600
O2198       O  0.23693631  0.84934510  0.93458979    -0.51500
C2199       C  0.28064305  0.86821936  0.91377854     0.70500
O2200       O  0.27568478  0.85718700  0.89517835    -0.46400
C2201       C  0.25006767  0.87359982  0.85781793     0.75200
O2202       O  0.25119890  0.83759602  0.85622005    -0.58300
O2203       O  0.24517657  0.87064464  0.88595573    -0.48300
O2204       O  0.23124881  0.83597253  0.87418400    -0.54700
C2205       C  0.23793474  0.83844251  0.94462725     0.85400
O2206       O  0.27118676  0.87184022  0.92167316    -0.56600
O2207       O  0.25685561  0.86702098  0.84892478    -0.59900
In2208     In  0.18473607  0.92157734  0.69109480     1.36900
C2209       C  0.16735684  0.90830281  0.74043004     0.77800
O2210       O  0.16330967  0.91648550  0.66859729    -0.60600
O2211       O  0.17570936  0.90762872  0.64724434    -0.51500
C2212       C  0.20010001  0.94926916  0.66935649     0.70500
O2213       O  0.19181119  0.94585886  0.69364952    -0.46400
C2214       C  0.20542304  0.91625621  0.71298198     0.75200
O2215       O  0.17205020  0.92190899  0.73464346    -0.58300
O2216       O  0.19708393  0.90906362  0.68999140    -0.48300
O2217       O  0.17140857  0.90185473  0.72089090    -0.54700
C2218       C  0.16390310  0.90830441  0.64722832     0.85400
O2219       O  0.20043938  0.93846274  0.65657943    -0.56600
O2220       O  0.20397405  0.92693041  0.72284465    -0.59900
In2221     In  0.15202671  0.40528908  0.90185070     1.36900
C2222       C  0.17466155  0.41347932  0.86232459     0.77800
O2223       O  0.17029843  0.41988381  0.93539250    -0.60600
O2224       O  0.15839999  0.39667000  0.94424265    -0.51500
C2225       C  0.13633603  0.41786650  0.92110908     0.70500
O2226       O  0.14549352  0.42295017  0.89830756    -0.46400
C2227       C  0.13241709  0.38077362  0.87029594     0.75200
O2228       O  0.16726141  0.42010228  0.86280692    -0.58300
O2229       O  0.13656384  0.38029083  0.89818471    -0.48300
O2230       O  0.17032067  0.40284624  0.88153648    -0.54700
C2231       C  0.16909582  0.40932356  0.95219311     0.85400
O2232       O  0.13522808  0.40635540  0.93361854    -0.56600
O2233       O  0.13789444  0.39376681  0.85952408    -0.59900
In2234     In  0.08344224  0.27026045  0.68662559     1.36900
C2235       C  0.10140335  0.26589416  0.72298162     0.77800
O2236       O  0.08741085  0.25604046  0.65302174    -0.60600
O2237       O  0.09586359  0.27874663  0.64077106    -0.51500
C2238       C  0.05479512  0.25526192  0.67086716     0.70500
O2239       O  0.06027547  0.25052205  0.69123807    -0.46400
C2240       C  0.08784931  0.29399491  0.71966931     0.75200
O2241       O  0.08737299  0.25777850  0.72538310    -0.58300
O2242       O  0.09266193  0.29492084  0.69166748    -0.48300
O2243       O  0.10586349  0.27589686  0.70220760    -0.54700
C2244       C  0.09495023  0.26645651  0.63375334     0.85400
O2245       O  0.06400936  0.26785694  0.65953895    -0.56600
O2246       O  0.07956378  0.28082479  0.72923519    -0.59900
In2247     In  0.25493857  0.40280866  0.65483854     1.36900
C2248       C  0.23993556  0.41002814  0.61466221     0.77800
O2249       O  0.25892164  0.39098590  0.61514126    -0.60600
O2250       O  0.24355839  0.37798814  0.65130309    -0.51500
C2251       C  0.28294743  0.41443946  0.67438186     0.70500
O2252       O  0.27930850  0.42034221  0.65266955    -0.46400
C2253       C  0.24283121  0.40676961  0.70629444     0.75200
O2254       O  0.25404750  0.41694807  0.61487987    -0.58300
O2255       O  0.24095427  0.39422026  0.69834529    -0.48300
O2256       O  0.23386695  0.39969095  0.63464926    -0.54700
C2257       C  0.24948970  0.37818437  0.62497929     0.85400
O2258       O  0.27224541  0.40263890  0.68560009    -0.56600
O2259       O  0.25179010  0.41745997  0.68887853    -0.59900
In2260     In  0.18845860  0.27183048  0.93560979     1.36900
C2261       C  0.16534217  0.26495205  0.97327092     0.77800
O2262       O  0.20269080  0.28135199  0.97841046    -0.60600
O2263       O  0.20457074  0.29636915  0.94256138    -0.51500
C2264       C  0.20169326  0.25673946  0.91775777     0.70500
O2265       O  0.19055386  0.25140513  0.93610670    -0.46400
C2266       C  0.17463155  0.27108713  0.88251322     0.75200
O2267       O  0.17231376  0.25792068  0.97449512    -0.58300
O2268       O  0.18566711  0.28291411  0.89287457    -0.48300
O2269       O  0.17034436  0.27529048  0.95322337    -0.54700
C2270       C  0.20844767  0.29473797  0.96987705     0.85400
O2271       O  0.20611455  0.26990894  0.90895775    -0.56600
O2272       O  0.17142933  0.25957481  0.89834787    -0.59900
In2273     In  0.26257630  0.18521814  0.80939029     1.36900
C2274       C  0.25728532  0.16399762  0.76737725     0.77800
O2275       O  0.27409564  0.20141419  0.77004911    -0.60600
O2276       O  0.28716131  0.20154180  0.80863255    -0.51500
C2277       C  0.24881062  0.19936633  0.83053219     0.70500
O2278       O  0.24358501  0.18982167  0.80845581    -0.46400
C2279       C  0.25843418  0.16793534  0.85859757     0.75200
O2280       O  0.24985193  0.17060317  0.76744504    -0.58300
O2281       O  0.27115970  0.17861146  0.85102308    -0.48300
O2282       O  0.26727357  0.16848212  0.78816593    -0.54700
C2283       C  0.28691923  0.20677244  0.78177191     0.85400
O2284       O  0.26102018  0.20154082  0.84145409    -0.56600
O2285       O  0.24785246  0.16663692  0.84174156    -0.59900
In2286     In  0.40191171  0.25226741  0.62060376     1.36900
C2287       C  0.40803644  0.23959187  0.66796821     0.77800
O2288       O  0.39070850  0.25886176  0.65727310    -0.60600
O2289       O  0.37729572  0.24385233  0.62129521    -0.51500
C2290       C  0.41702630  0.28021890  0.59918729     0.70500
O2291       O  0.42060842  0.27594721  0.62379883    -0.46400
C2292       C  0.40460452  0.23612449  0.57454195     0.75200
O2293       O  0.41770355  0.25204197  0.65680331    -0.58300
O2294       O  0.39247527  0.23579044  0.57998719    -0.48300
O2295       O  0.39548185  0.23384843  0.65489138    -0.54700
C2296       C  0.37775615  0.25062509  0.64663877     0.85400
O2297       O  0.40559452  0.27007506  0.58557611    -0.56600
O2298       O  0.41512385  0.24495499  0.59211755    -0.59900
In2299     In  0.26288216  0.08053037  0.55494185     1.36900
C2300       C  0.25523528  0.09497746  0.51506788     0.77800
O2301       O  0.24897282  0.08496869  0.58874465    -0.60600
O2302       O  0.27215242  0.09532515  0.59774225    -0.51500
C2303       C  0.25000122  0.05239995  0.57460016     0.70500
O2304       O  0.24427780  0.05668056  0.55386858    -0.46400
C2305       C  0.28683795  0.08549073  0.52188565     0.75200
O2306       O  0.24810969  0.08089585  0.51630176    -0.58300
O2307       O  0.28765109  0.09067820  0.54945019    -0.48300
O2308       O  0.26593993  0.10124993  0.53414299    -0.54700
C2309       C  0.25975629  0.09390746  0.60578951     0.85400
O2310       O  0.26244925  0.06256365  0.58460568    -0.56600
O2311       O  0.27373026  0.07699446  0.51243487    -0.59900
In2312     In  0.40574180  0.14949484  0.86497540     1.36900
C2313       C  0.41067936  0.16878046  0.91099581     0.77800
O2314       O  0.42131062  0.17000994  0.83807507    -0.60600
O2315       O  0.39928594  0.15625575  0.82060334    -0.51500
C2316       C  0.41869796  0.13464220  0.84395929     0.70500
O2317       O  0.42429400  0.14420858  0.86593046    -0.46400
C2318       C  0.37923780  0.12972644  0.88768393     0.75200
O2319       O  0.41685262  0.16094270  0.91108480    -0.58300
O2320       O  0.38093312  0.13658174  0.86202284    -0.48300
O2321       O  0.40252627  0.16678277  0.88739250    -0.54700
C2322       C  0.41168128  0.16811900  0.81762351     0.85400
O2323       O  0.40654296  0.13273895  0.83360194    -0.56600
O2324       O  0.39124923  0.13215428  0.90025224    -0.59900
In2325     In  0.93014082  0.40984676  0.72936502     1.36900
C2326       C  0.92833470  0.42806691  0.68860460     0.77800
O2327       O  0.91810520  0.41746386  0.76064846    -0.60600
O2328       O  0.94092923  0.42525336  0.77065894    -0.51500
C2329       C  0.91420565  0.38243823  0.75244432     0.70500
O2330       O  0.90967427  0.38693595  0.72953224    -0.46400
C2331       C  0.95066341  0.40874560  0.69426190     0.75200
O2332       O  0.91752473  0.41489744  0.69268539    -0.58300
O2333       O  0.95345948  0.41426142  0.72196346    -0.48300
O2334       O  0.93954064  0.43153641  0.70559965    -0.54700
C2335       C  0.92931118  0.42580185  0.77737827     0.85400
O2336       O  0.92689836  0.39190613  0.76281591    -0.56600
O2337       O  0.93713901  0.40249217  0.68641144    -0.59900
In2338     In  0.05996745  0.47542574  0.51645516     1.36900
C2339       C  0.06440879  0.49682382  0.55675404     0.77800
O2340       O  0.07302896  0.49395665  0.98263603    -0.60600
O2341       O  0.05027260  0.47940655  0.97194188    -0.51500
C2342       C  0.07566539  0.46251122  0.00127663     0.70500
O2343       O  0.08036406  0.47332845  0.52037741    -0.46400
C2344       C  0.03797864  0.45436386  0.55061261     0.75200
O2345       O  0.07426717  0.49340805  0.55103237    -0.58300
O2346       O  0.03594715  0.45724380  0.52252194    -0.48300
O2347       O  0.05237253  0.48924414  0.54186973    -0.54700
C2348       C  0.06241212  0.49087266  0.96410478     0.85400
O2349       O  0.06293908  0.45836249  0.99000752    -0.56600
O2350       O  0.05131835  0.46143630  0.55977724    -0.59900
In2351     In  0.93641395  0.51914070  0.98138658     1.36900
C2352       C  0.93210839  0.49868398  0.93861134     0.77800
O2353       O  0.94723169  0.53586110  0.94296472    -0.60600
O2354       O  0.96112192  0.53488029  0.97849301    -0.51500
C2355       C  0.92216619  0.53303313  0.49974062     0.70500
O2356       O  0.91734018  0.52334149  0.97797013    -0.46400
C2357       C  0.93183440  0.50179862  0.53094695     0.75200
O2358       O  0.92344759  0.50389667  0.94081455    -0.58300
O2359       O  0.94400107  0.51385997  0.52687398    -0.48300
O2360       O  0.94274342  0.50410227  0.95798305    -0.54700
C2361       C  0.96029680  0.54066898  0.95280259     0.85400
O2362       O  0.93430013  0.53551107  0.51173602    -0.56600
O2363       O  0.92190237  0.49927666  0.51083487    -0.59900
In2364     In  0.06672158  0.58460542  0.76643748     1.36900
C2365       C  0.06950084  0.56578243  0.80407457     0.88600
O2366       O  0.05816612  0.59057776  0.80924820    -0.60600
O2367       O  0.04266910  0.57756030  0.77342313    -0.51500
C2368       C  0.08075006  0.61291899  0.74726302     0.70500
O2369       O  0.08635412  0.60816095  0.76747213    -0.46400
C2370       C  0.06942500  0.57159814  0.71494213     0.75200
O2371       O  0.07925109  0.57956241  0.80359327    -0.58300
O2372       O  0.05755740  0.57167880  0.72143932    -0.48300
O2373       O  0.05858723  0.56208477  0.78593643    -0.54700
C2374       C  0.04472533  0.58349058  0.80063974     0.85400
O2375       O  0.06815191  0.60309703  0.73729954    -0.56600
O2376       O  0.08006043  0.57893903  0.73388011    -0.59900
C2377       C  0.97353799  0.55118416  0.93414748    -0.11700
C2378       C  0.97296793  0.56066378  0.91095021     0.03700
C2379       C  0.98480948  0.56813233  0.88953239    -0.12300
C2380       C  0.99727262  0.56634109  0.89088969     0.18600
C2381       C  0.99824059  0.55764011  0.91517801    -0.09300
C2382       C  0.98649454  0.55025973  0.93669128    -0.02300
H2383       H  0.98409764  0.57498101  0.87113609     0.05100
C2384       C  0.00865321  0.57249628  0.86551203     0.20600
H2385       H  0.98713237  0.54301571  0.95420424     0.10300
C2386       C  0.02270938  0.58478163  0.87193816    -0.15700
C2387       C  0.03449969  0.58923389  0.85037776     0.03300
C2388       C  0.03225578  0.58124393  0.82166565    -0.11000
C2389       C  0.01784177  0.56958744  0.81450299    -0.01000
C2390       C  0.00613082  0.56515246  0.83615836    -0.06200
H2391       H  0.02466106  0.59054873  0.89442296     0.06300
H2392       H  0.01580144  0.56331038  0.79270415     0.09700
Br2393     Br  0.01479312  0.55439101  0.91804752    -0.05900
Br2394     Br  0.95640163  0.56387520  0.90725205    -0.02800
Br2395     Br  0.05328736  0.60607668  0.86228825     0.00000
Br2396     Br  0.98720578  0.54815398  0.82580245    -0.04300
C2397       C  0.06403849  0.50048055  0.93659274    -0.11700
C2398       C  0.07810882  0.51035069  0.92292883     0.03700
C2399       C  0.07945856  0.52073361  0.90013843    -0.12300
C2400       C  0.06698811  0.52141075  0.89015566     0.18600
C2401       C  0.05284800  0.51102903  0.90232273    -0.09300
C2402       C  0.05147088  0.50072576  0.92536554    -0.02300
H2403       H  0.09032254  0.52840409  0.89027699     0.05100
C2404       C  0.06890507  0.53311475  0.86741073     0.20600
H2405       H  0.04058373  0.49324284  0.93535184     0.10300
C2406       C  0.06347772  0.52906694  0.83645650    -0.15700
C2407       C  0.06398592  0.53961503  0.81519709     0.03300
C2408       C  0.07031877  0.55468413  0.82461086    -0.11000
C2409       C  0.07637260  0.55883532  0.85514974    -0.01000
C2410       C  0.07553645  0.54817108  0.87661576    -0.06200
H2411       H  0.05848951  0.51754936  0.82905368     0.06300
H2412       H  0.08109929  0.57027461  0.86290852     0.09700
Br2413     Br  0.03520012  0.51103480  0.88935557    -0.05900
Br2414     Br  0.09586447  0.50995487  0.93338213    -0.02800
Br2415     Br  0.05592218  0.53264884  0.77359405     0.00000
Br2416     Br  0.08248057  0.55445933  0.91905475    -0.04300
C2417       C  0.07055030  0.56262490  0.68897314    -0.11700
C2418       C  0.06200372  0.55915339  0.66107452     0.03700
C2419       C  0.06213546  0.54906093  0.63922337    -0.12300
C2420       C  0.07054464  0.54217971  0.64480585     0.18600
C2421       C  0.07959100  0.54612853  0.67192183    -0.09300
C2422       C  0.07960510  0.55634212  0.69359450    -0.02300
H2423       H  0.05536405  0.54628372  0.61807331     0.05100
C2424       C  0.06913617  0.53042665  0.62282916     0.20600
H2425       H  0.08619114  0.55881905  0.71496308     0.10300
C2426       C  0.08134809  0.53280387  0.60412257    -0.15700
C2427       C  0.08015284  0.52192194  0.58272487     0.03300
C2428       C  0.06646097  0.50851570  0.57946539    -0.11000
C2429       C  0.05424583  0.50622978  0.59804669    -0.01000
C2430       C  0.05555352  0.51692125  0.61995750    -0.06200
H2431       H  0.09180311  0.54321385  0.60601613     0.06300
H2432       H  0.04368626  0.49594181  0.59595067     0.09700
Br2433     Br  0.09121356  0.53704986  0.68164497    -0.05900
Br2434     Br  0.05020233  0.56800064  0.65115102    -0.02800
Br2435     Br  0.09724446  0.52636963  0.55721001     0.00000
Br2436     Br  0.03869189  0.51228030  0.64649978    -0.04300
C2437       C  0.92909106  0.43615336  0.80131748    -0.11700
C2438       C  0.91564765  0.43438757  0.81392807     0.03700
C2439       C  0.91597416  0.44523838  0.83414506    -0.12300
C2440       C  0.92947606  0.45785038  0.84242562     0.18600
C2441       C  0.94289583  0.45957696  0.83026155    -0.09300
C2442       C  0.94261936  0.44879914  0.80989151    -0.02300
H2443       H  0.90565359  0.44363085  0.84420165     0.05100
C2444       C  0.92948343  0.46810742  0.86675238     0.20600
H2445       H  0.95303563  0.45047681  0.80027250     0.10300
C2446       C  0.93530417  0.46815696  0.89658256    -0.15700
C2447       C  0.93590562  0.47772706  0.92047982     0.03300
C2448       C  0.93036254  0.48743233  0.91488917    -0.11000
C2449       C  0.92396251  0.48696438  0.88531890    -0.01000
C2450       C  0.92358655  0.47746263  0.86119220    -0.06200
H2451       H  0.93954829  0.46074020  0.90120270     0.06300
H2452       H  0.91974886  0.49438827  0.88054941     0.09700
Br2453     Br  0.96184667  0.47661128  0.84042132    -0.05900
Br2454     Br  0.89650432  0.41711865  0.80627547    -0.02800
Br2455     Br  0.94424602  0.47658909  0.96017542     0.00000
Br2456     Br  0.91571190  0.47823516  0.82067289    -0.04300
C2457       C  0.92806523  0.43886111  0.66630001    -0.11700
C2458       C  0.94137782  0.45087200  0.65383657     0.03700
C2459       C  0.94077592  0.46130437  0.63417070    -0.12300
C2460       C  0.92717841  0.46025880  0.62678480     0.18600
C2461       C  0.91388512  0.44829453  0.63902520    -0.09300
C2462       C  0.91440335  0.43766509  0.65842678    -0.02300
H2463       H  0.95101625  0.47022290  0.62415278     0.05100
C2464       C  0.92717043  0.47104681  0.60400929     0.20600
H2465       H  0.90411730  0.42864872  0.66801755     0.10300
C2466       C  0.92040273  0.46579513  0.57447666    -0.15700
C2467       C  0.92142885  0.47561392  0.55082076     0.03300
C2468       C  0.92957352  0.49112479  0.55634396    -0.11000
C2469       C  0.93624990  0.49641093  0.58603949    -0.01000
C2470       C  0.93501546  0.48651086  0.60989873    -0.06200
H2471       H  0.91466629  0.45396588  0.56943548     0.06300
H2472       H  0.94247026  0.50827305  0.59067221     0.09700
Br2473     Br  0.89485315  0.44636495  0.63098231    -0.05900
Br2474     Br  0.96080989  0.45354087  0.66126777    -0.02800
Br2475     Br  0.91249902  0.46702977  0.51071209     0.00000
Br2476     Br  0.94411365  0.49460704  0.65013539    -0.04300
C2477       C  0.96244390  0.41057775  0.67180363    -0.11700
C2478       C  0.96174233  0.41349901  0.63932531     0.03700
C2479       C  0.97406504  0.41763028  0.61963464    -0.12300
C2480       C  0.98717986  0.41871870  0.63129704     0.18600
C2481       C  0.98755964  0.41494455  0.66332556    -0.09300
C2482       C  0.97532152  0.41108811  0.68329599    -0.02300
H2483       H  0.97370299  0.42092418  0.59546622     0.05100
C2484       C  0.00087267  0.42626386  0.61132135     0.20600
H2485       H  0.97599847  0.40880002  0.70808701     0.10300
C2486       C  0.01308234  0.43933983  0.62304723    -0.15700
C2487       C  0.02546623  0.44817779  0.60404155     0.03300
C2488       C  0.02568790  0.44428927  0.57199021    -0.11000
C2489       C  0.01359966  0.43111306  0.56016293    -0.01000
C2490       C  0.00133764  0.42200372  0.57962357    -0.06200
H2491       H  0.01273432  0.44309056  0.64688154     0.06300
H2492       H  0.01367617  0.42791757  0.53570148     0.09700
Br2493     Br  0.00460613  0.41518684  0.68124311    -0.05900
Br2494     Br  0.94511592  0.41396636  0.62090823    -0.02800
Br2495     Br  0.04099204  0.46618717  0.62277862     0.00000
Br2496     Br  0.98562736  0.40386928  0.56181489    -0.04300
C2497       C  0.30014889  0.08990038  0.50166482    -0.11700
C2498       C  0.29971805  0.08217337  0.47354484     0.03700
C2499       C  0.31241263  0.08758308  0.95428672    -0.12300
C2500       C  0.32550992  0.10073882  0.96208500     0.18600
C2501       C  0.32589533  0.10865133  0.98951637    -0.09300
C2502       C  0.31340448  0.10307698  0.00931655    -0.02300
H2503       H  0.31203078  0.08158257  0.93290694     0.05100
C2504       C  0.33857618  0.10638509  0.94090472     0.20600
H2505       H  0.31389641  0.10944526  0.53013773     0.10300
C2506       C  0.33873131  0.11343616  0.91258814    -0.15700
C2507       C  0.35157480  0.12047891  0.89373496     0.03300
C2508       C  0.36459468  0.12042947  0.90327917    -0.11000
C2509       C  0.36402354  0.11257326  0.93082421    -0.01000
C2510       C  0.35118278  0.10560741  0.94956290    -0.06200
H2511       H  0.32897859  0.11396488  0.90578626     0.06300
H2512       H  0.37377555  0.11225365  0.93851943     0.09700
Br2513     Br  0.34290618  0.12764172  0.99959639    -0.05900
Br2514     Br  0.28232937  0.06429274  0.45955771    -0.02800
Br2515     Br  0.35057068  0.13066364  0.85673317     0.00000
Br2516     Br  0.35148555  0.09555003  0.48733576    -0.04300
C2517       C  0.41109254  0.23189292  0.69341048    -0.11700
C2518       C  0.40018778  0.22353595  0.71649266     0.03700
C2519       C  0.40235216  0.21436197  0.73712630    -0.12300
C2520       C  0.41526669  0.21337670  0.73520354     0.18600
C2521       C  0.42650217  0.22224111  0.71329422    -0.09300
C2522       C  0.42441333  0.23154561  0.69270258    -0.02300
H2523       H  0.39375211  0.20766179  0.75424821     0.05100
C2524       C  0.41609560  0.20210119  0.75457010     0.20600
H2525       H  0.43283740  0.23787313  0.67497974     0.10300
C2526       C  0.40770941  0.18715124  0.74528913    -0.15700
C2527       C  0.40677279  0.17585696  0.76464852     0.03300
C2528       C  0.41428141  0.17952815  0.79393974    -0.11000
C2529       C  0.42327973  0.19457524  0.80241002    -0.01000
C2530       C  0.42415888  0.20584961  0.78303673    -0.06200
H2531       H  0.40161883  0.18425681  0.72315792     0.06300
H2532       H  0.42904348  0.19756212  0.82494070     0.09700
Br2533     Br  0.44429532  0.22112779  0.70935502    -0.05900
Br2534     Br  0.38220202  0.22431368  0.72112358    -0.02800
Br2535     Br  0.39531558  0.15573404  0.74958788     0.00000
Br2536     Br  0.43570869  0.22608112  0.79723954    -0.04300
C2537       C  0.40629072  0.22667097  0.55030280    -0.11700
C2538       C  0.42036443  0.22847114  0.04220709     0.03700
C2539       C  0.42130131  0.21882731  0.02039869    -0.12300
C2540       C  0.40854413  0.20746251  0.00595162     0.18600
C2541       C  0.39453349  0.20564623  0.51357879    -0.09300
C2542       C  0.39349052  0.21519216  0.53561398    -0.02300
H2543       H  0.43211544  0.22036801  0.01419151     0.05100
C2544       C  0.41023048  0.19813472  0.98176152     0.20600
H2545       H  0.38259937  0.21353065  0.54143923     0.10300
C2546       C  0.41280371  0.18668830  0.99106796    -0.15700
C2547       C  0.41390567  0.17736908  0.96840770     0.03300
C2548       C  0.41232226  0.17949551  0.93593118    -0.11000
C2549       C  0.41050374  0.19145551  0.92684744    -0.01000
C2550       C  0.40955920  0.20077740  0.94935945    -0.06200
H2551       H  0.41361966  0.18480567  0.01604409     0.06300
H2552       H  0.40951857  0.19341881  0.90198701     0.09700
Br2553     Br  0.37657419  0.19020650  0.49462939    -0.05900
Br2554     Br  0.43896040  0.24403146  0.05872291    -0.02800
Br2555     Br  0.41652818  0.16145908  0.98337972     0.00000
Br2556     Br  0.40730720  0.21696004  0.93469712    -0.04300
C2557       C  0.25499923  0.15217675  0.74465124    -0.11700
C2558       C  0.25675262  0.14014773  0.75417516     0.03700
C2559       C  0.25680112  0.13032829  0.73150340    -0.12300
C2560       C  0.25495558  0.13214394  0.69929342     0.18600
C2561       C  0.25236174  0.14360386  0.68986755    -0.09300
C2562       C  0.25239585  0.15353523  0.71252819    -0.02300
H2563       H  0.25846051  0.12132212  0.73897979     0.05100
C2564       C  0.25620946  0.12220125  0.67591644     0.20600
H2565       H  0.25097534  0.16266307  0.70486646     0.10300
C2566       C  0.24340918  0.10907838  0.66656101    -0.15700
C2567       C  0.24426691  0.09940234  0.64456108     0.03300
C2568       C  0.25823830  0.10282512  0.63157758    -0.11000
C2569       C  0.27107007  0.11585429  0.64173215    -0.01000
C2570       C  0.27013319  0.12551287  0.66356441    -0.06200
H2571       H  0.23268651  0.10637882  0.67639116     0.06300
H2572       H  0.28187523  0.11880000  0.63200150     0.09700
Br2573     Br  0.24923377  0.14631438  0.64620951    -0.05900
Br2574     Br  0.25856471  0.13622166  0.79793477    -0.02800
Br2575     Br  0.22593129  0.08165590  0.63410827     0.00000
Br2576     Br  0.28810966  0.14332040  0.67529921    -0.04300
C2577       C  0.25626924  0.15718686  0.88369013    -0.11700
C2578       C  0.24275099  0.14921031  0.90073471     0.03700
C2579       C  0.24089442  0.13824787  0.92242055    -0.12300
C2580       C  0.25229573  0.13505902  0.92724896     0.18600
C2581       C  0.26579101  0.14305326  0.91052301    -0.09300
C2582       C  0.26772806  0.15407780  0.88909854    -0.02300
H2583       H  0.23059400  0.13227978  0.93575201     0.05100
C2584       C  0.25045570  0.12397215  0.95105881     0.20600
H2585       H  0.27810548  0.15996944  0.87599998     0.10300
C2586       C  0.24550978  0.10926438  0.94163837    -0.15700
C2587       C  0.24616864  0.09919056  0.96256829     0.03300
C2588       C  0.25180497  0.10391849  0.49344398    -0.11000
C2589       C  0.25594654  0.11843423  0.50314080    -0.01000
C2590       C  0.25537093  0.12844360  0.98223434    -0.06200
H2591       H  0.24188028  0.10586654  0.91745110     0.06300
H2592       H  0.26023746  0.12223604  0.52680689     0.09700
Br2593     Br  0.28182003  0.13917017  0.91622933    -0.05900
Br2594     Br  0.22673704  0.15322503  0.89664852    -0.02800
Br2595     Br  0.24083921  0.07986336  0.94643730     0.00000
Br2596     Br  0.26255277  0.14846887  0.49645736    -0.04300
C2597       C  0.36414894  0.24802391  0.66386582    -0.11700
C2598       C  0.36466295  0.25657464  0.69058810     0.03700
C2599       C  0.35198835  0.25178329  0.70970833    -0.12300
C2600       C  0.33866149  0.23871646  0.70247477     0.18600
C2601       C  0.33778709  0.23086241  0.67455935    -0.09300
C2602       C  0.35044318  0.23551917  0.65558519    -0.02300
H2603       H  0.35264066  0.25803801  0.73085286     0.05100
C2604       C  0.32617727  0.23263397  0.72547478     0.20600
H2605       H  0.34969471  0.22884789  0.63512221     0.10300
C2606       C  0.31323174  0.23306528  0.71863541    -0.15700
C2607       C  0.30050765  0.22551602  0.73778685     0.03300
C2608       C  0.30065113  0.21730870  0.76433189    -0.11000
C2609       C  0.31399665  0.21780854  0.77224588    -0.01000
C2610       C  0.32663985  0.22528335  0.75301072    -0.06200
H2611       H  0.31288219  0.23889453  0.69772249     0.06300
H2612       H  0.31438823  0.21162700  0.79246486     0.09700
Br2613     Br  0.31983355  0.21304643  0.66266885    -0.05900
Br2614     Br  0.38217027  0.27481820  0.70259424    -0.02800
Br2615     Br  0.28340470  0.22687999  0.72622218     0.00000
Br2616     Br  0.34386027  0.22400573  0.76380271    -0.04300
C2617       C  0.20882733  0.24827337  0.90647748    -0.11700
C2618       C  0.20654907  0.23512786  0.92142380     0.03700
C2619       C  0.21317204  0.22736540  0.90882751    -0.12300
C2620       C  0.22221066  0.23248056  0.88166223     0.18600
C2621       C  0.22470787  0.24568353  0.86706278    -0.09300
C2622       C  0.21806040  0.25343105  0.87946375    -0.02300
H2623       H  0.21129968  0.21727284  0.92035417     0.05100
C2624       C  0.22889818  0.22387606  0.86887686     0.20600
H2625       H  0.22005279  0.26350571  0.86766844     0.10300
C2626       C  0.22390301  0.21640556  0.83981258    -0.15700
C2627       C  0.23005842  0.20826962  0.82682854     0.03300
C2628       C  0.24145596  0.20743743  0.84319609    -0.11000
C2629       C  0.24631860  0.21488561  0.87248884    -0.01000
C2630       C  0.24016927  0.22302719  0.88531175    -0.06200
H2631       H  0.21522643  0.21702150  0.82701605     0.06300
H2632       H  0.25503923  0.21446403  0.88553152     0.09700
Br2633     Br  0.23744806  0.25380340  0.83066104    -0.05900
Br2634     Br  0.19511945  0.22739483  0.95970517    -0.02800
Br2635     Br  0.22278043  0.19925985  0.78610739     0.00000
Br2636     Br  0.24794287  0.23331658  0.92471732    -0.04300
C2637       C  0.21808052  0.30720908  0.99150931    -0.11700
C2638       C  0.22423028  0.32239176  0.98334285     0.03700
C2639       C  0.23118313  0.33338893  0.50665510    -0.12300
C2640       C  0.23225281  0.32961148  0.53801837     0.18600
C2641       C  0.22697168  0.31466359  0.54576992    -0.09300
C2642       C  0.22002188  0.30364961  0.52265027    -0.02300
H2643       H  0.23529467  0.34493167  0.00057117     0.05100
C2644       C  0.23733048  0.34117979  0.56284385     0.20600
H2645       H  0.21562152  0.29215753  0.52953817     0.10300
C2646       C  0.22672783  0.34100867  0.58378250    -0.15700
C2647       C  0.23057875  0.35261730  0.60532829     0.03300
C2648       C  0.24535700  0.36470249  0.60610538    -0.11000
C2649       C  0.25606323  0.36458517  0.58582188    -0.01000
C2650       C  0.25216250  0.35292191  0.56435170    -0.06200
H2651       H  0.21524213  0.33206654  0.58244270     0.06300
H2652       H  0.26745333  0.37376198  0.58620530     0.09700
Br2653     Br  0.22870759  0.30876836  0.58785714    -0.05900
Br2654     Br  0.22326704  0.32906995  0.94150020    -0.02800
Br2655     Br  0.21475307  0.35198383  0.63029636     0.00000
Br2656     Br  0.26736157  0.35351322  0.53740196    -0.04300
C2657       C  0.10313813  0.26477815  0.60672609    -0.11700
C2658       C  0.09946688  0.25072968  0.59394571     0.03700
C2659       C  0.10878285  0.24972097  0.57118982    -0.12300
C2660       C  0.12179231  0.26246087  0.56103457     0.18600
C2661       C  0.12529545  0.27646270  0.57314058    -0.09300
C2662       C  0.11595241  0.27754266  0.59557236    -0.02300
H2663       H  0.10597352  0.23893490  0.56163181     0.05100
C2664       C  0.13172170  0.26106257  0.53793958     0.20600
H2665       H  0.11909637  0.28838544  0.60530769     0.10300
C2666       C  0.13123893  0.26456864  0.50612695    -0.15700
C2667       C  0.14157737  0.26500090  0.98422812     0.03300
C2668       C  0.15272562  0.26196796  0.49422070    -0.11000
C2669       C  0.15260118  0.25754992  0.52569827    -0.01000
C2670       C  0.14222985  0.25715661  0.54759349    -0.06200
H2671       H  0.12299957  0.26733570  0.49849703     0.06300
H2672       H  0.16106348  0.25517714  0.53371191     0.09700
Br2673     Br  0.14317507  0.29432057  0.56101937    -0.05900
Br2674     Br  0.08190391  0.23252094  0.60596797    -0.02800
Br2675     Br  0.13974968  0.26963534  0.94096907     0.00000
Br2676     Br  0.14342203  0.25225678  0.59088135    -0.04300
C2677       C  0.16554095  0.27057208  0.85513913    -0.11700
C2678       C  0.16458591  0.28307648  0.84553107     0.03700
C2679       C  0.15437487  0.28145648  0.82217715    -0.12300
C2680       C  0.14500316  0.26757921  0.80826290     0.18600
C2681       C  0.14622388  0.25523869  0.81691585    -0.09300
C2682       C  0.15640539  0.25677942  0.84022653    -0.02300
H2683       H  0.15337123  0.29096395  0.81557542     0.05100
C2684       C  0.13342841  0.26602389  0.78610576     0.20600
H2685       H  0.15693462  0.24705215  0.84720925     0.10300
C2686       C  0.13682605  0.26874250  0.75379739    -0.15700
C2687       C  0.12627053  0.26808639  0.73249460     0.03300
C2688       C  0.11199522  0.26452106  0.74360821    -0.11000
C2689       C  0.10847275  0.26127735  0.77581711    -0.01000
C2690       C  0.11914553  0.26220308  0.79713152    -0.06200
H2691       H  0.14779312  0.27159265  0.74524228     0.06300
H2692       H  0.09765531  0.25876234  0.78471148     0.09700
Br2693     Br  0.13379934  0.23602555  0.79818325    -0.05900
Br2694     Br  0.17578300  0.30235424  0.86494093    -0.02800
Br2695     Br  0.13196731  0.27198218  0.68854207     0.00000
Br2696     Br  0.11406527  0.25896906  0.84133928    -0.04300
C2697       C  0.12777804  0.42481523  0.93319724    -0.11700
C2698       C  0.12476932  0.43429422  0.91464257     0.03700
C2699       C  0.11651522  0.44033980  0.92760827    -0.12300
C2700       C  0.11123952  0.43726414  0.95895104     0.18600
C2701       C  0.11436083  0.42800719  0.97758179    -0.09300
C2702       C  0.12244258  0.42180891  0.96463514    -0.02300
H2703       H  0.11410049  0.44742195  0.91307773     0.05100
C2704       C  0.10229006  0.44362188  0.97151167     0.20600
H2705       H  0.12474443  0.41474341  0.97948728     0.10300
C2706       C  0.08679207  0.43448830  0.97432756    -0.15700
C2707       C  0.07792042  0.44032152  0.98457022     0.03300
C2708       C  0.08458091  0.45559562  0.99216555    -0.11000
C2709       C  0.10014796  0.46458939  0.99030688    -0.01000
C2710       C  0.10897552  0.45874600  0.97993592    -0.06200
H2711       H  0.08157400  0.42278414  0.96831989     0.06300
H2712       H  0.10546292  0.47630576  0.99626237     0.09700
Br2713     Br  0.10825421  0.42394936  0.52115807    -0.05900
Br2714     Br  0.13093822  0.43898781  0.87119204    -0.02800
Br2715     Br  0.05692053  0.42674494  0.48925376     0.00000
Br2716     Br  0.13013126  0.47178228  0.97782413    -0.04300
C2717       C  0.23093433  0.41316349  0.59236686    -0.11700
C2718       C  0.21759067  0.41245007  0.60230473     0.03700
C2719       C  0.20816510  0.41333025  0.57992864    -0.12300
C2720       C  0.21158561  0.41453865  0.54746436     0.18600
C2721       C  0.22501442  0.41552306  0.53756434    -0.09300
C2722       C  0.23469516  0.41509906  0.56001741    -0.02300
H2723       H  0.19784162  0.41251862  0.58776238     0.05100
C2724       C  0.20044071  0.41344584  0.52416834     0.20600
H2725       H  0.24472220  0.41533559  0.55196912     0.10300
C2726       C  0.20258669  0.42619470  0.50832125    -0.15700
C2727       C  0.19245320  0.42530331  0.48532625     0.03300
C2728       C  0.17971323  0.41135056  0.97801894    -0.11000
C2729       C  0.17759207  0.39867783  0.99444691    -0.01000
C2730       C  0.18781357  0.39962714  0.51711268    -0.06200
H2731       H  0.21233253  0.43686852  0.51354940     0.06300
H2732       H  0.16809729  0.38784330  0.98915013     0.09700
Br2733     Br  0.22979930  0.41592843  0.49344151    -0.05900
Br2734     Br  0.21158713  0.41010516  0.64611040    -0.02800
Br2735     Br  0.19719986  0.44358098  0.46449804     0.00000
Br2736     Br  0.18453853  0.38160070  0.03668053    -0.04300
C2737       C  0.23459772  0.40885442  0.73255657    -0.11700
C2738       C  0.22054699  0.39724545  0.74289942     0.03700
C2739       C  0.21209759  0.40038751  0.76398733    -0.12300
C2740       C  0.21748724  0.41481251  0.77570684     0.18600
C2741       C  0.23185762  0.42616359  0.76725533    -0.09300
C2742       C  0.24020030  0.42319315  0.74541733    -0.02300
H2743       H  0.20116273  0.39153203  0.77115475     0.05100
C2744       C  0.20792333  0.41748279  0.79737699     0.20600
H2745       H  0.25103367  0.43218736  0.73815010     0.10300
C2746       C  0.21056930  0.41816339  0.83000971    -0.15700
C2747       C  0.20026310  0.41798053  0.85162145     0.03300
C2748       C  0.18712517  0.41720977  0.84055185    -0.11000
C2749       C  0.18500219  0.41762734  0.80785334    -0.01000
C2750       C  0.19525154  0.41761935  0.78621012    -0.06200
H2751       H  0.22033871  0.41813661  0.83870178     0.06300
H2752       H  0.17490020  0.41695100  0.79913055     0.09700
Br2753     Br  0.24033084  0.44587220  0.78441073    -0.05900
Br2754     Br  0.21173067  0.37702239  0.72833913    -0.02800
Br2755     Br  0.20448385  0.41845378  0.89603354     0.00000
Br2756     Br  0.19113672  0.41694657  0.74172185    -0.04300
C2757       C  0.12270124  0.36726651  0.85106935    -0.11700
C2758       C  0.11565437  0.36790479  0.82294508     0.03700
C2759       C  0.10834338  0.35536637  0.80334064    -0.12300
C2760       C  0.10775940  0.34200572  0.81102415     0.18600
C2761       C  0.11421686  0.34110112  0.83961175    -0.09300
C2762       C  0.12149117  0.35361653  0.85942884    -0.02300
H2763       H  0.10339283  0.35615379  0.78142435     0.05100
C2764       C  0.10191690  0.32986406  0.78710641     0.20600
H2765       H  0.12684107  0.35283988  0.88071445     0.10300
C2766       C  0.11030803  0.33190437  0.75949968    -0.15700
C2767       C  0.10564348  0.32072517  0.73643575     0.03300
C2768       C  0.09221700  0.30704065  0.74078026    -0.11000
C2769       C  0.08358370  0.30524046  0.76806958    -0.01000
C2770       C  0.08825961  0.31652585  0.79097797    -0.06200
H2771       H  0.12077365  0.34220040  0.75620479     0.06300
H2772       H  0.07322324  0.29490512  0.77188030     0.09700
Br2773     Br  0.11444503  0.32341886  0.85132792    -0.05900
Br2774     Br  0.11551286  0.38543460  0.80944143    -0.02800
Br2775     Br  0.11880986  0.32472228  0.70098040     0.00000
Br2776     Br  0.07559506  0.31329983  0.82691766    -0.04300
C2777       C  0.20837364  0.96459608  0.65638990    -0.11700
C2778       C  0.22092448  0.96945671  0.63625738     0.03700
C2779       C  0.22775363  0.98373831  0.62305784    -0.12300
C2780       C  0.22244832  0.99343905  0.62976047     0.18600
C2781       C  0.21026022  0.98882210  0.65049414    -0.09300
C2782       C  0.20334152  0.97452727  0.66361327    -0.02300
H2783       H  0.23728983  0.98732797  0.60750150     0.05100
C2784       C  0.22974091  0.00833831  0.61491242     0.20600
H2785       H  0.19383714  0.97110204  0.67917057     0.10300
C2786       C  0.22243528  0.01122220  0.59055464    -0.15700
C2787       C  0.22879157  0.02532800  0.57655140     0.03300
C2788       C  0.24282644  0.03693214  0.58705592    -0.11000
C2789       C  0.25017351  0.03381265  0.61115322    -0.01000
C2790       C  0.24377991  0.01971365  0.62499534    -0.06200
H2791       H  0.21164807  0.00244188  0.58256121     0.06300
H2792       H  0.26090889  0.04244143  0.61970742     0.09700
Br2793     Br  0.20291720  0.00181950  0.66199392    -0.05900
Br2794     Br  0.22983308  0.95757501  0.62692061    -0.02800
Br2795     Br  0.21749041  0.02770430  0.54359131     0.00000
Br2796     Br  0.25437514  0.01666515  0.65846720    -0.04300
C2797       C  0.21484099  0.91152092  0.72943199    -0.11700
C2798       C  0.22858021  0.92178293  0.74331422     0.03700
C2799       C  0.23591069  0.91669220  0.76300680    -0.12300
C2800       C  0.22969194  0.90144151  0.76924319     0.18600
C2801       C  0.21603346  0.89120264  0.75505569    -0.09300
C2802       C  0.20888048  0.89626360  0.73498920    -0.02300
H2803       H  0.24641627  0.92465279  0.77372941     0.05100
C2804       C  0.23715090  0.89630459  0.79150042     0.20600
H2805       H  0.19815110  0.88827093  0.72515954     0.10300
C2806       C  0.23734338  0.89930295  0.82404968    -0.15700
C2807       C  0.24234864  0.89278952  0.84620893     0.03300
C2808       C  0.24714108  0.88294573  0.83580500    -0.11000
C2809       C  0.24799639  0.88094521  0.80298286    -0.01000
C2810       C  0.24313069  0.88755562  0.78095243    -0.06200
H2811       H  0.23312705  0.90635483  0.83233477     0.06300
H2812       H  0.25190075  0.87369318  0.79431027     0.09700
Br2813     Br  0.20603678  0.87029912  0.76447019    -0.05900
Br2814     Br  0.23790340  0.94276337  0.73547391    -0.02800
Br2815     Br  0.24255711  0.89798140  0.89002910     0.00000
Br2816     Br  0.24450219  0.88400019  0.73667374    -0.04300
C2817       C  0.09714457  0.84693642  0.02156436    -0.11700
C2818       C  0.10127066  0.86193673  0.01681577     0.03700
C2819       C  0.11077630  0.87279213  0.53850339    -0.12300
C2820       C  0.11623185  0.86883219  0.56477750     0.18600
C2821       C  0.11133183  0.85375011  0.57053992    -0.09300
C2822       C  0.10189703  0.84294728  0.54892786    -0.02300
H2823       H  0.11464953  0.88441661  0.53383528     0.05100
C2824       C  0.12847358  0.88048515  0.58363177     0.20600
H2825       H  0.09890663  0.83146348  0.55260637     0.10300
C2826       C  0.12528268  0.88618992  0.61071766    -0.15700
C2827       C  0.13668135  0.89577143  0.63125204     0.03300
C2828       C  0.15161862  0.89973224  0.62463823    -0.11000
C2829       C  0.15473823  0.89438463  0.59672969    -0.01000
C2830       C  0.14333303  0.88487982  0.57629192    -0.06200
H2831       H  0.11382230  0.88271950  0.61651689     0.06300
H2832       H  0.16607389  0.89732445  0.59109367     0.09700
Br2833     Br  0.11834538  0.84758696  0.60610451    -0.05900
Br2834     Br  0.09602027  0.86841247  0.97903235    -0.02800
Br2835     Br  0.13070757  0.90186804  0.66892280     0.00000
Br2836     Br  0.14844481  0.87756239  0.53929844    -0.04300
C2837       C  0.10857025  0.84751137  0.88030132    -0.11700
C2838       C  0.11146267  0.84347875  0.85027670     0.03700
C2839       C  0.12125974  0.85452428  0.82934484    -0.12300
C2840       C  0.12848947  0.86961697  0.83793930     0.18600
C2841       C  0.12552107  0.87368462  0.86776291    -0.09300
C2842       C  0.11552665  0.86266550  0.88854658    -0.02300
H2843       H  0.12335066  0.85132622  0.80624171     0.05100
C2844       C  0.13926891  0.88080338  0.81552139     0.20600
H2845       H  0.11348348  0.86593695  0.91161069     0.10300
C2846       C  0.13600211  0.89092267  0.80085106    -0.15700
C2847       C  0.14540251  0.90064733  0.77726560     0.03300
C2848       C  0.15818495  0.90016719  0.76802748    -0.11000
C2849       C  0.16162200  0.89036245  0.78341842    -0.01000
C2850       C  0.15237149  0.88080474  0.80706353    -0.06200
H2851       H  0.12586901  0.89090284  0.80703637     0.06300
H2852       H  0.17147510  0.88995349  0.77659456     0.09700
Br2853     Br  0.13544287  0.89401991  0.88174109    -0.05900
Br2854     Br  0.10189990  0.82321231  0.83588394    -0.02800
Br2855     Br  0.13957752  0.91326571  0.75651402     0.00000
Br2856     Br  0.15811330  0.86790338  0.82692106    -0.04300
C2857       C  0.12576000  0.70391929  0.68073806    -0.11700
C2858       C  0.11672895  0.69965174  0.70846193     0.03700
C2859       C  0.10987623  0.68492586  0.71927464    -0.12300
C2860       C  0.11171456  0.67419041  0.70308169     0.18600
C2861       C  0.12055527  0.67830594  0.67547193    -0.09300
C2862       C  0.12758317  0.69305493  0.66469140    -0.02300
H2863       H  0.10301582  0.68179914  0.74047111     0.05100
C2864       C  0.10389387  0.65863746  0.71477595     0.20600
H2865       H  0.13435491  0.69597297  0.64339908     0.10300
C2866       C  0.08940553  0.64883560  0.70437205    -0.15700
C2867       C  0.08159888  0.63401163  0.71463390     0.03300
C2868       C  0.08835962  0.62867262  0.73599490    -0.11000
C2869       C  0.10287728  0.63869455  0.74663535    -0.01000
C2870       C  0.11060726  0.65351957  0.73624301    -0.06200
H2871       H  0.08414129  0.65276138  0.68802363     0.06300
H2872       H  0.10832182  0.63499420  0.76301355     0.09700
Br2873     Br  0.12305101  0.66401467  0.65148810    -0.05900
Br2874     Br  0.11337921  0.71318046  0.73350719    -0.02800
Br2875     Br  0.06177907  0.62204499  0.69826533     0.00000
Br2876     Br  0.13034174  0.66643402  0.75183563    -0.04300
C2877       C  0.22845691  0.82821002  0.97027764    -0.11700
C2878       C  0.21626339  0.82874418  0.98394451     0.03700
C2879       C  0.20711083  0.81798321  0.50621012    -0.12300
C2880       C  0.20967737  0.80649246  0.51502482     0.18600
C2881       C  0.22170424  0.80586479  0.50142190    -0.09300
C2882       C  0.23099955  0.81668673  0.47951694    -0.02300
H2883       H  0.19779050  0.81846297  0.51649431     0.05100
C2884       C  0.19972924  0.79535863  0.53864560     0.20600
H2885       H  0.24014316  0.81588587  0.96927425     0.10300
C2886       C  0.18930357  0.78086470  0.52881987    -0.15700
C2887       C  0.17924234  0.77034149  0.55049591     0.03300
C2888       C  0.17954828  0.77431660  0.58268434    -0.11000
C2889       C  0.19018186  0.78879805  0.59238245    -0.01000
C2890       C  0.20022082  0.79923588  0.57077042    -0.06200
H2891       H  0.18878331  0.77784165  0.50403856     0.06300
H2892       H  0.19063521  0.79208290  0.61696325     0.09700
Br2893     Br  0.22589722  0.79045945  0.51215464    -0.05900
Br2894     Br  0.21091431  0.84330277  0.97271275    -0.02800
Br2895     Br  0.16466340  0.75124953  0.53415039     0.00000
Br2896     Br  0.21451747  0.81865070  0.58620752    -0.04300
C2897       C  0.22776464  0.81785841  0.83548642    -0.11700
C2898       C  0.23116178  0.81723644  0.80331294     0.03700
C2899       C  0.22057820  0.80596359  0.78384435    -0.12300
C2900       C  0.20667241  0.79526124  0.79606441     0.18600
C2901       C  0.20371037  0.79526286  0.82861431    -0.09300
C2902       C  0.21417617  0.80658755  0.84799048    -0.02300
H2903       H  0.22289732  0.80598204  0.75874855     0.05100
C2904       C  0.19491785  0.78522659  0.77393292     0.20600
H2905       H  0.21150619  0.80683854  0.87279326     0.10300
C2906       C  0.19524198  0.77298264  0.76104766    -0.15700
C2907       C  0.18485286  0.76396224  0.73815787     0.03300
C2908       C  0.17400498  0.76734482  0.72750690    -0.11000
C2909       C  0.17341778  0.77931283  0.74153367    -0.01000
C2910       C  0.18377705  0.78825347  0.76441458    -0.06200
H2911       H  0.20371191  0.77053240  0.76862181     0.06300
H2912       H  0.16523638  0.78213586  0.73379657     0.09700
Br2913     Br  0.18529222  0.78036636  0.84719589    -0.05900
Br2914     Br  0.24922515  0.83233498  0.78392614    -0.02800
Br2915     Br  0.18607774  0.74716404  0.72312783     0.00000
Br2916     Br  0.18282283  0.80502126  0.78066550    -0.04300
C2917       C  0.08827075  0.78632852  0.99528392    -0.11700
C2918       C  0.10024910  0.78394735  0.98830659     0.03700
C2919       C  0.10391531  0.77601874  0.50957379    -0.12300
C2920       C  0.09602380  0.77046545  0.53803265     0.18600
C2921       C  0.08385050  0.77239597  0.54466667    -0.09300
C2922       C  0.07997551  0.78011475  0.52326336    -0.02300
H2923       H  0.11340125  0.77468449  0.50448667     0.05100
C2924       C  0.10182137  0.76426321  0.56178894     0.20600
H2925       H  0.07077947  0.78177457  0.52928959     0.10300
C2926       C  0.10923773  0.77292761  0.58835276    -0.15700
C2927       C  0.11696044  0.76873817  0.60896709     0.03300
C2928       C  0.11724052  0.75546430  0.60325919    -0.11000
C2929       C  0.10920066  0.74646870  0.57731594    -0.01000
C2930       C  0.10158994  0.75079357  0.55662042    -0.06200
H2931       H  0.10963491  0.78342651  0.59218111     0.06300
H2932       H  0.10921985  0.73624851  0.57245868     0.09700
Br2933     Br  0.07251305  0.76506844  0.58312026    -0.05900
Br2934     Br  0.11259161  0.79159298  0.95115333    -0.02800
Br2935     Br  0.12804776  0.78258946  0.64218116     0.00000
Br2936     Br  0.09133563  0.73820608  0.52115235    -0.04300
C2937       C  0.57877172  0.54882366  0.68551453    -0.11700
C2938       C  0.58261198  0.56351692  0.69308765     0.03700
C2939       C  0.57859324  0.57148231  0.67250245    -0.12300
C2940       C  0.57012508  0.56473517  0.64509132     0.18600
C2941       C  0.56589424  0.54981592  0.63834029    -0.09300
C2942       C  0.57051634  0.54217545  0.65804438    -0.02300
H2943       H  0.58194756  0.58292010  0.67806861     0.05100
C2944       C  0.56541916  0.57307381  0.62403870     0.20600
H2945       H  0.56721029  0.53074402  0.65241762     0.10300
C2946       C  0.56922798  0.57462009  0.59166120    -0.15700
C2947       C  0.56284504  0.57996616  0.57001022     0.03300
C2948       C  0.55272703  0.58433079  0.58079557    -0.11000
C2949       C  0.55018867  0.58422841  0.61365679    -0.01000
C2950       C  0.55617824  0.57842805  0.63511884    -0.06200
H2951       H  0.57665292  0.57093292  0.58292823     0.06300
H2952       H  0.54254002  0.58758617  0.62259924     0.09700
Br2953     Br  0.55286930  0.53886769  0.60391351    -0.05900
Br2954     Br  0.59362172  0.57319382  0.73065628    -0.02800
Br2955     Br  0.56818631  0.58067311  0.52613159     0.00000
Br2956     Br  0.54989383  0.57648706  0.67862553    -0.04300
C2957       C  0.46435501  0.36915051  0.52188709    -0.11700
C2958       C  0.46741900  0.35805537  0.51099340     0.03700
C2959       C  0.45971024  0.34370449  0.52401651    -0.12300
C2960       C  0.44909488  0.34012698  0.54811768     0.18600
C2961       C  0.44631376  0.35120166  0.55958032    -0.09300
C2962       C  0.45381015  0.36547121  0.54637897    -0.02300
H2963       H  0.46200887  0.33525359  0.51530023     0.05100
C2964       C  0.44098313  0.32478498  0.56095996     0.20600
H2965       H  0.45134178  0.37374510  0.55545946     0.10300
C2966       C  0.44435192  0.32201431  0.59140520    -0.15700
C2967       C  0.43671525  0.30769923  0.60453718     0.03300
C2968       C  0.42548706  0.29571174  0.58683361    -0.11000
C2969       C  0.42217751  0.29861126  0.55628062    -0.01000
C2970       C  0.42976967  0.31295541  0.54338527    -0.06200
H2971       H  0.45289710  0.33110704  0.60516465     0.06300
H2972       H  0.41359643  0.28968569  0.54226115     0.09700
Br2973     Br  0.43210649  0.34726354  0.59278480    -0.05900
Br2974     Br  0.48180943  0.36143853  0.97848708    -0.02800
Br2975     Br  0.44191948  0.30568571  0.64713306     0.00000
Br2976     Br  0.42407475  0.31599759  0.50213322    -0.04300
C2977       C  0.56301108  0.49109716  0.80936700    -0.11700
C2978       C  0.55037969  0.49041217  0.82396275     0.03700
C2979       C  0.54145123  0.47861503  0.84439155    -0.12300
C2980       C  0.54473086  0.46734814  0.85037469     0.18600
C2981       C  0.55704499  0.46780262  0.83551625    -0.09300
C2982       C  0.56610884  0.47963221  0.81545936    -0.02300
H2983       H  0.53188499  0.47822075  0.85574875     0.05100
C2984       C  0.53545231  0.45549022  0.87308576     0.20600
H2985       H  0.57551040  0.47968066  0.80415909     0.10300
C2986       C  0.52126210  0.44409187  0.86400297    -0.15700
C2987       C  0.51175587  0.43343709  0.88601489     0.03300
C2988       C  0.51644051  0.43431890  0.91764898    -0.11000
C2989       C  0.53080830  0.44545478  0.92634803    -0.01000
C2990       C  0.54035529  0.45592721  0.90429541    -0.06200
H2991       H  0.51743721  0.44375198  0.83999554     0.06300
H2992       H  0.53442048  0.44632984  0.95072781     0.09700
Br2993     Br  0.56160876  0.45225930  0.84135556    -0.05900
Br2994     Br  0.54423888  0.50473245  0.81670312    -0.02800
Br2995     Br  0.49201310  0.41899222  0.87258995     0.00000
Br2996     Br  0.55964275  0.47114893  0.91835358    -0.04300
C2997       C  0.56311277  0.48509529  0.67670404    -0.11700
C2998       C  0.54844829  0.47412073  0.68522973     0.03700
C2999       C  0.53919115  0.46364252  0.66284878    -0.12300
C3000       C  0.54434941  0.46364417  0.63213042     0.18600
C3001       C  0.55929451  0.47382580  0.62426296    -0.09300
C3002       C  0.56858338  0.48446621  0.64656300    -0.02300
H3003       H  0.52777641  0.45565285  0.66919660     0.05100
C3004       C  0.53349438  0.45399557  0.60800630     0.20600
H3005       H  0.57984737  0.49270209  0.63978894     0.10300
C3006       C  0.52387612  0.45835162  0.59522500    -0.15700
C3007       C  0.51329256  0.44962259  0.57244945     0.03300
C3008       C  0.51199442  0.43602087  0.56258967    -0.11000
C3009       C  0.52166573  0.43169348  0.57556610    -0.01000
C3010       C  0.53235967  0.44055876  0.59807686    -0.06200
H3011       H  0.52482535  0.46878460  0.60260470     0.06300
H3012       H  0.52097959  0.42140110  0.56802457     0.09700
Br3013     Br  0.56715995  0.47414818  0.58282976    -0.05900
Br3014     Br  0.54044393  0.47262848  0.72718337    -0.02800
Br3015     Br  0.50201367  0.45766585  0.55398325     0.00000
Br3016     Br  0.54517731  0.43393905  0.61453865    -0.04300
C3017       C  0.29830617  0.42085721  0.68683443    -0.11700
C3018       C  0.31109510  0.43036409  0.66874213     0.03700
C3019       C  0.32525591  0.43655771  0.68241363    -0.12300
C3020       C  0.32699534  0.43327570  0.71378979     0.18600
C3021       C  0.31434339  0.42337741  0.73145660    -0.09300
C3022       C  0.30017800  0.41730300  0.71801061    -0.02300
H3023       H  0.33499482  0.44393122  0.66844705     0.05100
C3024       C  0.34211190  0.44040097  0.72761590     0.20600
H3025       H  0.29055757  0.40985881  0.73219526     0.10300
C3026       C  0.34691813  0.45286382  0.74731664    -0.15700
C3027       C  0.36149306  0.46051807  0.75911953     0.03300
C3028       C  0.37168594  0.45578751  0.75078882    -0.11000
C3029       C  0.36656621  0.44295256  0.73179963    -0.01000
C3030       C  0.35194484  0.43525942  0.72043124    -0.06200
H3031       H  0.33931374  0.45676902  0.75321966     0.06300
H3032       H  0.37399688  0.43889991  0.72543920     0.09700
Br3033     Br  0.31594232  0.41758783  0.77371709    -0.05900
Br3034     Br  0.31012499  0.43456206  0.62481763    -0.02800
Br3035     Br  0.36648130  0.47729920  0.78611482     0.00000
Br3036     Br  0.34575245  0.41765502  0.69545898    -0.04300
C3037       C  0.44330765  0.51382937  0.83444757    -0.11700
C3038       C  0.45761704  0.52526726  0.82504423     0.03700
C3039       C  0.46760706  0.53491773  0.84777626    -0.12300
C3040       C  0.46361377  0.53340387  0.87990767     0.18600
C3041       C  0.44906892  0.52257965  0.88907931    -0.09300
C3042       C  0.43903412  0.51291508  0.86637898    -0.02300
H3043       H  0.47865576  0.54347068  0.84044882     0.05100
C3044       C  0.47485643  0.54312530  0.90344472     0.20600
H3045       H  0.42808030  0.50426196  0.87395885     0.10300
C3046       C  0.47869688  0.55807596  0.90579264    -0.15700
C3047       C  0.48914228  0.56752832  0.92810894     0.03300
C3048       C  0.49596749  0.56203211  0.94852663    -0.11000
C3049       C  0.49256730  0.54721307  0.94521796    -0.01000
C3050       C  0.48208832  0.53776359  0.92289962    -0.06200
H3051       H  0.47347330  0.56237781  0.89030916     0.06300
H3052       H  0.49774571  0.54284383  0.96064538     0.09700
Br3053     Br  0.44253499  0.52045297  0.93236824    -0.05900
Br3054     Br  0.46406340  0.52851748  0.78150481    -0.02800
Br3055     Br  0.49416081  0.58799798  0.92862717     0.00000
Br3056     Br  0.47803908  0.51765724  0.91958941    -0.04300
C3057       C  0.48849029  0.55826998  0.58722132    -0.11700
C3058       C  0.49208740  0.55110542  0.61088763     0.03700
C3059       C  0.48086317  0.54010252  0.62961711    -0.12300
C3060       C  0.46587150  0.53567812  0.62470011     0.18600
C3061       C  0.46223785  0.54292851  0.60117336    -0.09300
C3062       C  0.47356211  0.55423971  0.58281419    -0.02300
H3063       H  0.48385682  0.53493304  0.64817852     0.05100
C3064       C  0.45449102  0.52414914  0.64587599     0.20600
H3065       H  0.47065499  0.55947399  0.56424325     0.10300
C3066       C  0.44631335  0.52806034  0.66617726    -0.15700
C3067       C  0.43703402  0.51831901  0.68973244     0.03300
C3068       C  0.43594089  0.50426830  0.69365461    -0.11000
C3069       C  0.44370599  0.50015731  0.67238477    -0.01000
C3070       C  0.45286607  0.50990385  0.64865041    -0.06200
H3071       H  0.44761966  0.53904589  0.66451431     0.06300
H3072       H  0.44295309  0.48943358  0.67464489     0.09700
Br3073     Br  0.44199369  0.53720385  0.59199212    -0.05900
Br3074     Br  0.51221827  0.55616574  0.61922945    -0.02800
Br3075     Br  0.42710903  0.52564463  0.71651663     0.00000
Br3076     Br  0.46301234  0.50326163  0.62078776    -0.04300
C3077       C  0.45825030  0.42285040  0.93482245    -0.11700
C3078       C  0.44944352  0.41410378  0.90905587     0.03700
C3079       C  0.44335765  0.41993172  0.88791385    -0.12300
C3080       C  0.44600640  0.43444858  0.89148917     0.18600
C3081       C  0.45473677  0.44319563  0.91700861    -0.09300
C3082       C  0.46063646  0.43734017  0.93853211    -0.02300
H3083       H  0.43656816  0.41312147  0.86840162     0.05100
C3084       C  0.43926362  0.44016221  0.86885155     0.20600
H3085       H  0.46760748  0.44439729  0.95757090     0.10300
C3086       C  0.42699878  0.44130972  0.87861489    -0.15700
C3087       C  0.42061138  0.44718762  0.85847579     0.03300
C3088       C  0.42661575  0.45217252  0.82771973    -0.11000
C3089       C  0.43855791  0.45041538  0.81762605    -0.01000
C3090       C  0.44489159  0.44450678  0.83789215    -0.06200
H3091       H  0.42245815  0.43773122  0.90224713     0.06300
H3092       H  0.44340761  0.45419149  0.79429994     0.09700
Br3093     Br  0.45961207  0.46349399  0.92225070    -0.05900
Br3094     Br  0.44512945  0.39413881  0.90101566    -0.02800
Br3095     Br  0.40369870  0.44788406  0.87487459     0.00000
Br3096     Br  0.46174868  0.44337860  0.82295571    -0.04300
C3097       C  0.87588233  0.57467541  0.57957947    -0.11700
C3098       C  0.87123498  0.55947880  0.58423647     0.03700
C3099       C  0.87928902  0.55345420  0.57028507    -0.12300
C3100       C  0.89191503  0.56223584  0.55158754     0.18600
C3101       C  0.89647075  0.57727869  0.54654374    -0.09300
C3102       C  0.88854140  0.58336920  0.56059703    -0.02300
H3103       H  0.87564226  0.54180180  0.57390917     0.05100
C3104       C  0.90002333  0.55538838  0.53726361     0.20600
H3105       H  0.89226677  0.59499128  0.55633575     0.10300
C3106       C  0.89345038  0.54517363  0.51237075    -0.15700
C3107       C  0.90048457  0.53794463  0.49910226     0.03300
C3108       C  0.91438745  0.54084982  0.51112303    -0.11000
C3109       C  0.92099662  0.55132404  0.53577002    -0.01000
C3110       C  0.91394389  0.55851059  0.54887651    -0.06200
H3111       H  0.88272172  0.54275552  0.00333536     0.06300
H3112       H  0.93163247  0.55379484  0.54542910     0.09700
Br3113     Br  0.91310046  0.58978014  0.51967181    -0.05900
Br3114     Br  0.85371684  0.54605362  0.60784719    -0.02800
Br3115     Br  0.89025454  0.52424416  0.96507751     0.00000
Br3116     Br  0.92346417  0.57199230  0.58357505    -0.04300
C3117       C  0.03969760  0.79364525  0.90487486    -0.11700
C3118       C  0.03759599  0.78759812  0.87382855     0.03700
C3119       C  0.02336139  0.78039985  0.86033578    -0.12300
C3120       C  0.01101896  0.77880401  0.87725774     0.18600
C3121       C  0.01295868  0.78435275  0.90840646    -0.09300
C3122       C  0.02718568  0.79182868  0.92176984    -0.02300
H3123       H  0.02187693  0.77593126  0.83650872     0.05100
C3124       C  0.99612858  0.77099780  0.86238342     0.20600
H3125       H  0.02841815  0.79615827  0.94566326     0.10300
C3126       C  0.98593775  0.75642544  0.87171565    -0.15700
C3127       C  0.97156143  0.74878659  0.85909721     0.03300
C3128       C  0.96704662  0.75587151  0.83673546    -0.11000
C3129       C  0.97752082  0.77038045  0.82677764    -0.01000
C3130       C  0.99195081  0.77790788  0.83931216    -0.06200
H3131       H  0.98920259  0.75097346  0.88908641     0.06300
H3132       H  0.97443380  0.77602351  0.80953573     0.09700
Br3133     Br  0.99648868  0.78203118  0.93355544    -0.05900
Br3134     Br  0.05340809  0.78867667  0.84805958    -0.02800
Br3135     Br  0.95904110  0.72867800  0.87348334     0.00000
Br3136     Br  0.00547239  0.79777739  0.82504724    -0.04300
C3137       C  0.91734998  0.69817894  0.75469403    -0.11700
C3138       C  0.90889752  0.68355535  0.76693258     0.03700
C3139       C  0.90436084  0.67131344  0.74672148    -0.12300
C3140       C  0.90816602  0.67324907  0.71443196     0.18600
C3141       C  0.91739319  0.68772717  0.70267343    -0.09300
C3142       C  0.92193253  0.69999771  0.72273214    -0.02300
H3143       H  0.89724340  0.66019913  0.75597514     0.05100
C3144       C  0.90072999  0.66025762  0.69286613     0.20600
H3145       H  0.92859476  0.71104493  0.71281791     0.10300
C3146       C  0.89040857  0.65981584  0.67103216    -0.15700
C3147       C  0.88177719  0.64718260  0.65253089     0.03300
C3148       C  0.88331361  0.63451343  0.65582574    -0.11000
C3149       C  0.89389114  0.63507344  0.67730960    -0.01000
C3150       C  0.90262401  0.64783788  0.69562597    -0.06200
H3151       H  0.88866805  0.66921239  0.66919872     0.06300
H3152       H  0.89527178  0.62549681  0.68010540     0.09700
Br3153     Br  0.92372174  0.69129172  0.65914295    -0.05900
Br3154     Br  0.90259521  0.67924220  0.81044102    -0.02800
Br3155     Br  0.86715515  0.64764276  0.62568488     0.00000
Br3156     Br  0.91706104  0.64791576  0.72386865    -0.04300
C3157       C  0.70367648  0.57705447  0.83590185    -0.11700
C3158       C  0.69097480  0.56740948  0.85417867     0.03700
C3159       C  0.67670392  0.56142691  0.84110531    -0.12300
C3160       C  0.67477007  0.56484366  0.81000520     0.18600
C3161       C  0.68731633  0.57474504  0.79207377    -0.09300
C3162       C  0.70157241  0.58078276  0.80504815    -0.02300
H3163       H  0.66705289  0.55392254  0.85515097     0.05100
C3164       C  0.65963750  0.55754628  0.79622898     0.20600
H3165       H  0.71108879  0.58821876  0.79060132     0.10300
C3166       C  0.65048931  0.56362993  0.80152345    -0.15700
C3167       C  0.63608223  0.55689688  0.78888245     0.03300
C3168       C  0.63052003  0.54364522  0.77075062    -0.11000
C3169       C  0.63988297  0.53774462  0.76523034    -0.01000
C3170       C  0.65429089  0.54457273  0.77776318    -0.06200
H3171       H  0.65463183  0.57373750  0.81539330     0.06300
H3172       H  0.63593035  0.52763985  0.75145341     0.09700
Br3173     Br  0.68545170  0.58009396  0.74955467    -0.05900
Br3174     Br  0.69216652  0.56230661  0.89732381    -0.02800
Br3175     Br  0.62502106  0.56684942  0.79636052     0.00000
Br3176     Br  0.66632763  0.53577091  0.76941050    -0.04300
C3177       C  0.77023567  0.58936044  0.79185458    -0.11700
C3178       C  0.76876987  0.57538215  0.78423055     0.03700
C3179       C  0.77815330  0.57450085  0.76141813    -0.12300
C3180       C  0.78924631  0.58729054  0.74625638     0.18600
C3181       C  0.79074086  0.60117748  0.75368739    -0.09300
C3182       C  0.78123760  0.60210008  0.77602866    -0.02300
H3183       H  0.77692511  0.56377310  0.75574052     0.05100
C3184       C  0.79915426  0.58603940  0.72260280     0.20600
H3185       H  0.78276227  0.61295075  0.78161196     0.10300
C3186       C  0.79784707  0.58877098  0.69062682    -0.15700
C3187       C  0.80785226  0.58908779  0.66794999     0.03300
C3188       C  0.81958339  0.58679510  0.67720816    -0.11000
C3189       C  0.82031826  0.58312300  0.70887863    -0.01000
C3190       C  0.81018815  0.58270432  0.73154402    -0.06200
H3191       H  0.78912247  0.59090970  0.68337931     0.06300
H3192       H  0.82916195  0.58120474  0.71630601     0.09700
Br3193     Br  0.80620427  0.61932733  0.73532203    -0.05900
Br3194     Br  0.75467492  0.55700815  0.80430656    -0.02800
Br3195     Br  0.80457365  0.59225547  0.62459037     0.00000
Br3196     Br  0.81237366  0.57837158  0.77467680    -0.04300
C3197       C  0.77054304  0.58638940  0.93392919    -0.11700
C3198       C  0.77044248  0.57291616  0.93834718     0.03700
C3199       C  0.78041654  0.57237359  0.95985862    -0.12300
C3200       C  0.79046035  0.58509734  0.97707084     0.18600
C3201       C  0.79011178  0.59833822  0.97346068    -0.09300
C3202       C  0.78027166  0.59889713  0.95200943    -0.02300
H3203       H  0.78065033  0.56214403  0.96249631     0.05100
C3204       C  0.80170983  0.58474385  0.99771667     0.20600
H3205       H  0.78036696  0.60929036  0.94911232     0.10300
C3206       C  0.81678261  0.59289287  0.98882737    -0.15700
C3207       C  0.82793855  0.59427337  0.50936188     0.03300
C3208       C  0.82401278  0.58708991  0.53905484    -0.11000
C3209       C  0.80886746  0.57824276  0.54706728    -0.01000
C3210       C  0.79776450  0.57728689  0.52700097    -0.06200
H3211       H  0.81989034  0.59859939  0.96620492     0.06300
H3212       H  0.80566367  0.57273170  0.56988532     0.09700
Br3213     Br  0.80288870  0.61600025  0.49727196    -0.05900
Br3214     Br  0.75799519  0.55545937  0.91375241    -0.02800
Br3215     Br  0.84824208  0.60593888  0.49545391     0.00000
Br3216     Br  0.77755181  0.56693990  0.54190771    -0.04300
C3217       C  0.89913730  0.73908477  0.87703754    -0.11700
C3218       C  0.89889704  0.75240632  0.88269476     0.03700
C3219       C  0.88914143  0.75264879  0.90529972    -0.12300
C3220       C  0.87932166  0.73984213  0.92221812     0.18600
C3221       C  0.87911814  0.72643904  0.91600907    -0.09300
C3222       C  0.88907766  0.72619058  0.89388280    -0.02300
H3223       H  0.88913423  0.76292031  0.90959755     0.05100
C3224       C  0.86933345  0.74079338  0.94597438     0.20600
H3225       H  0.88872135  0.71575819  0.88942252     0.10300
C3226       C  0.85795438  0.74331624  0.93586930    -0.15700
C3227       C  0.84830707  0.74428770  0.95781382     0.03300
C3228       C  0.84999529  0.74264207  0.49046095    -0.11000
C3229       C  0.86165399  0.74053650  0.50046605    -0.01000
C3230       C  0.87139595  0.73980949  0.97862226    -0.06200
H3231       H  0.85643781  0.74429188  0.91076688     0.06300
H3232       H  0.86315901  0.73937903  0.52549988     0.09700
Br3233     Br  0.86492040  0.70806260  0.93585842    -0.05900
Br3234     Br  0.91084497  0.77060639  0.85978125    -0.02800
Br3235     Br  0.83247081  0.74674347  0.94167266     0.00000
Br3236     Br  0.88758008  0.73788361  0.99460865    -0.04300
C3237       C  0.89970654  0.74634467  0.74233298    -0.11700
C3238       C  0.88547079  0.74332590  0.75235167     0.03700
C3239       C  0.87571028  0.74387295  0.73056254    -0.12300
C3240       C  0.87998685  0.74765443  0.69888537     0.18600
C3241       C  0.89462659  0.75195536  0.68946127    -0.09300
C3242       C  0.90440298  0.75125237  0.71120020    -0.02300
H3243       H  0.86458448  0.74093744  0.73813391     0.05100
C3244       C  0.86863917  0.74590171  0.67570154     0.20600
H3245       H  0.91536922  0.75378645  0.70333197     0.10300
C3246       C  0.86761426  0.75827279  0.66668466    -0.15700
C3247       C  0.85687789  0.75683210  0.64480967     0.03300
C3248       C  0.84685176  0.74270327  0.63165488    -0.11000
C3249       C  0.84777678  0.73029613  0.64142407    -0.01000
C3250       C  0.85857456  0.73181699  0.66311051    -0.06200
H3251       H  0.87522780  0.76910108  0.67669283     0.06300
H3252       H  0.84033043  0.71939415  0.63153754     0.09700
Br3253     Br  0.90135309  0.75802285  0.64677520    -0.05900
Br3254     Br  0.87883980  0.73860782  0.79563400    -0.02800
Br3255     Br  0.85644878  0.77459741  0.63480764     0.00000
Br3256     Br  0.85951475  0.71443817  0.67420045    -0.04300
C3257       C  0.75574144  0.63219627  0.91794848    -0.11700
C3258       C  0.75487502  0.64445959  0.90680009     0.03700
C3259       C  0.75975323  0.65709280  0.92603315    -0.12300
C3260       C  0.76630492  0.65809234  0.95573992     0.18600
C3261       C  0.76699279  0.64568906  0.96695611    -0.09300
C3262       C  0.76147138  0.63283052  0.94834161    -0.02300
H3263       H  0.75892814  0.66641810  0.91726737     0.05100
C3264       C  0.77327262  0.67241035  0.97358547     0.20600
H3265       H  0.76238483  0.62353295  0.95700703     0.10300
C3266       C  0.76892567  0.67281587  0.50508263    -0.15700
C3267       C  0.77643736  0.68581382  0.52344247     0.03300
C3268       C  0.78816130  0.69888276  0.50990370    -0.11000
C3269       C  0.79190095  0.69868023  0.97792335    -0.01000
C3270       C  0.78479131  0.68561816  0.95995544    -0.06200
H3271       H  0.75991359  0.66284788  0.51571793     0.06300
H3272       H  0.80102292  0.70856565  0.96724825     0.09700
Br3273     Br  0.77657174  0.64606777  0.50606850    -0.05900
Br3274     Br  0.74710486  0.64448237  0.86567407    -0.02800
Br3275     Br  0.77017342  0.68511502  0.56661787     0.00000
Br3276     Br  0.79233500  0.68627367  0.91790675    -0.04300
C3277       C  0.57846639  0.02804891  0.92892476    -0.11700
C3278       C  0.56779436  0.01344273  0.93854722     0.03700
C3279       C  0.56335226  0.00154973  0.91740313    -0.12300
C3280       C  0.56962201  0.00371638  0.88696669     0.18600
C3281       C  0.58098103  0.01804659  0.87812891    -0.09300
C3282       C  0.58523686  0.03003682  0.89891581    -0.02300
H3283       H  0.55459280  0.99056227  0.92445182     0.05100
C3284       C  0.56311162  0.99119634  0.86398786     0.20600
H3285       H  0.59363063  0.04104776  0.89112251     0.10300
C3286       C  0.55588225  0.99235140  0.83709878    -0.15700
C3287       C  0.54794806  0.98022994  0.81673148     0.03300
C3288       C  0.54721045  0.96652536  0.82302980    -0.11000
C3289       C  0.55485471  0.96555723  0.84949922    -0.01000
C3290       C  0.56268562  0.97768585  0.86994120    -0.06200
H3291       H  0.55585147  0.00258840  0.83270976     0.06300
H3292       H  0.55441116  0.95517075  0.85487328     0.09700
Br3293     Br  0.59097561  0.02178013  0.83790399    -0.05900
Br3294     Br  0.55835629  0.00873044  0.97952895    -0.02800
Br3295     Br  0.53720666  0.98293100  0.78296848     0.00000
Br3296     Br  0.57239544  0.97516827  0.90596615    -0.04300
C3297       C  0.46008964  0.08822773  0.76392325    -0.11700
C3298       C  0.46008175  0.09994064  0.74696841     0.03700
C3299       C  0.45405643  0.10798387  0.76099376    -0.12300
C3300       C  0.44799807  0.10459174  0.79165602     0.18600
C3301       C  0.44792371  0.09295599  0.80851030    -0.09300
C3302       C  0.45395659  0.08493608  0.79471058    -0.02300
H3303       H  0.45388243  0.11679290  0.74774381     0.05100
C3304       C  0.44079937  0.11254263  0.80489900     0.20600
H3305       H  0.45378875  0.07602543  0.80823179     0.10300
C3306       C  0.42590219  0.10739516  0.79745703    -0.15700
C3307       C  0.41839790  0.11421721  0.81016087     0.03300
C3308       C  0.42593289  0.12659347  0.83082971    -0.11000
C3309       C  0.44091462  0.13166055  0.83830008    -0.01000
C3310       C  0.44835558  0.12476243  0.82544733    -0.06200
H3311       H  0.42002650  0.09787708  0.78186281     0.06300
H3312       H  0.44694707  0.14113807  0.85389595     0.09700
Br3313     Br  0.43932701  0.08741002  0.85014637    -0.05900
Br3314     Br  0.46738733  0.10519595  0.70428265    -0.02800
Br3315     Br  0.39780082  0.10554226  0.79866651     0.00000
Br3316     Br  0.46883745  0.13240835  0.83625880    -0.04300
C3317       C  0.56058419  0.07383525  0.91255869    -0.11700
C3318       C  0.56323716  0.07495208  0.87961719     0.03700
C3319       C  0.55258895  0.07471678  0.85908077    -0.12300
C3320       C  0.53934769  0.07343207  0.87099104     0.18600
C3321       C  0.53702853  0.07293691  0.90393917    -0.09300
C3322       C  0.54758934  0.07309858  0.92438098    -0.02300
H3323       H  0.55438702  0.07501302  0.83368576     0.05100
C3324       C  0.52775388  0.07179406  0.84865024     0.20600
H3325       H  0.54545779  0.07225711  0.94970573     0.10300
C3326       C  0.51447543  0.05807258  0.84642564    -0.15700
C3327       C  0.50349680  0.05588381  0.82450255     0.03300
C3328       C  0.50596845  0.06752865  0.80358378    -0.11000
C3329       C  0.51916999  0.08139219  0.80667107    -0.01000
C3330       C  0.52991577  0.08360989  0.82913728    -0.06200
H3331       H  0.51267692  0.04899359  0.86182232     0.06300
H3332       H  0.52122533  0.09061179  0.79148044     0.09700
Br3333     Br  0.51956572  0.07187085  0.92212239    -0.05900
Br3334     Br  0.58031009  0.07522165  0.86135385    -0.02800
Br3335     Br  0.48549617  0.03683209  0.82519486     0.00000
Br3336     Br  0.54714089  0.10308150  0.83324357    -0.04300
C3337       C  0.50724354  0.06783777  0.65881574    -0.11700
C3338       C  0.50399174  0.05619979  0.63724854     0.03700
C3339       C  0.51514651  0.05711412  0.61710741    -0.12300
C3340       C  0.52959999  0.06950093  0.61802917     0.18600
C3341       C  0.53268951  0.08139686  0.63868301    -0.09300
C3342       C  0.52151440  0.08050953  0.65880769    -0.02300
H3343       H  0.51254089  0.04812514  0.60058672     0.05100
C3344       C  0.54104907  0.06998038  0.59627229     0.20600
H3345       H  0.52415316  0.08947875  0.67540296     0.10300
C3346       C  0.54621771  0.08018731  0.57119904    -0.15700
C3347       C  0.55611782  0.08022441  0.54857031     0.03300
C3348       C  0.56100332  0.06979552  0.55079422    -0.11000
C3349       C  0.55596142  0.05972054  0.57622518    -0.01000
C3350       C  0.54613765  0.05979492  0.59893824    -0.06200
H3351       H  0.54217890  0.08790505  0.56872803     0.06300
H3352       H  0.55960945  0.05168084  0.57837153     0.09700
Br3353     Br  0.55217174  0.09868812  0.64147463    -0.05900
Br3354     Br  0.48434295  0.03915814  0.63330316    -0.02800
Br3355     Br  0.56137186  0.09398139  0.51398537     0.00000
Br3356     Br  0.54013029  0.04589851  0.63334378    -0.04300
C3357       C  0.36861246  0.90937566  0.99530286    -0.11700
C3358       C  0.35651824  0.89605745  0.00748556     0.03700
C3359       C  0.34251147  0.88977217  0.99305078    -0.12300
C3360       C  0.34020564  0.89632133  0.96629025     0.18600
C3361       C  0.35218414  0.90959533  0.95421419    -0.09300
C3362       C  0.36614164  0.91597625  0.96870585    -0.02300
H3363       H  0.33331543  0.87965133  0.00276254     0.05100
C3364       C  0.32518778  0.88925446  0.95170831     0.20600
H3365       H  0.37517933  0.92612375  0.95872320     0.10300
C3366       C  0.31733141  0.89694000  0.95158766    -0.15700
C3367       C  0.30303101  0.89053552  0.93862108     0.03300
C3368       C  0.29612834  0.87593599  0.92601873    -0.11000
C3369       C  0.30412749  0.86835809  0.92576634    -0.01000
C3370       C  0.31850957  0.87488101  0.93835077    -0.06200
H3371       H  0.32239325  0.90803953  0.96159667     0.06300
H3372       H  0.29913016  0.85722122  0.91599332     0.09700
Br3373     Br  0.35028513  0.91916632  0.91716664    -0.05900
Br3374     Br  0.35804416  0.88577331  0.54366000    -0.02800
Br3375     Br  0.29402149  0.90272374  0.93750661     0.00000
Br3376     Br  0.32875433  0.86388978  0.93579319    -0.04300
C3377       C  0.43541497  0.92653885  0.95540404    -0.11700
C3378       C  0.42997797  0.91350599  0.93673960     0.03700
C3379       C  0.43933586  0.91219321  0.91456337    -0.12300
C3380       C  0.45409021  0.92368903  0.91052872     0.18600
C3381       C  0.45939375  0.93686453  0.92831580    -0.09300
C3382       C  0.45007518  0.93822373  0.95048094    -0.02300
H3383       H  0.43507708  0.90218856  0.90030016     0.05100
C3384       C  0.46364506  0.92212704  0.88658096     0.20600
H3385       H  0.45444601  0.94830793  0.96450579     0.10300
C3386       C  0.46377583  0.92695568  0.85562977    -0.15700
C3387       C  0.47358851  0.92694809  0.83287180     0.03300
C3388       C  0.48357691  0.92200611  0.84100423    -0.11000
C3389       C  0.48286194  0.91642417  0.87165053    -0.01000
C3390       C  0.47304631  0.91654878  0.89445814    -0.06200
H3391       H  0.45640310  0.93105657  0.84933872     0.06300
H3392       H  0.49038498  0.91256422  0.87830322     0.09700
Br3393     Br  0.47935649  0.95318875  0.92320192    -0.05900
Br3394     Br  0.40971166  0.89746767  0.93912589    -0.02800
Br3395     Br  0.47250588  0.93365232  0.79106806     0.00000
Br3396     Br  0.47324122  0.90963845  0.93643732    -0.04300
C3397       C  0.48692649  0.92100591  0.70554651    -0.11700
C3398       C  0.47159819  0.91059893  0.71002533     0.03700
C3399       C  0.46116780  0.90993050  0.68827239    -0.12300
C3400       C  0.46568648  0.91942973  0.66198989     0.18600
C3401       C  0.48095586  0.92949212  0.65702523    -0.09300
C3402       C  0.49140844  0.93024840  0.67875748    -0.02300
H3403       H  0.44941629  0.90231303  0.69244483     0.05100
C3404       C  0.45431978  0.91965308  0.64152378     0.20600
H3405       H  0.50308987  0.93824814  0.67489414     0.10300
C3406       C  0.45240799  0.93203395  0.64305044    -0.15700
C3407       C  0.44256403  0.93328000  0.62270567     0.03300
C3408       C  0.43434867  0.92195088  0.60038262    -0.11000
C3409       C  0.43560826  0.90914182  0.60003257    -0.01000
C3410       C  0.44557675  0.90795345  0.62040103    -0.06200
H3411       H  0.45882565  0.94090462  0.65980589     0.06300
H3412       H  0.42939118  0.90039998  0.58289571     0.09700
Br3413     Br  0.48804373  0.94249565  0.62097940    -0.05900
Br3414     Br  0.46388626  0.89791571  0.74658724    -0.02800
Br3415     Br  0.44057433  0.95060093  0.62679953     0.00000
Br3416     Br  0.44764547  0.89069424  0.61723330    -0.04300
C3417       C  0.44262921  0.02578551  0.68933077    -0.11700
C3418       C  0.43472409  0.02643291  0.66275235     0.03700
C3419       C  0.42692186  0.01389099  0.64333297    -0.12300
C3420       C  0.42667967  0.00059560  0.65005146     0.18600
C3421       C  0.43350406  0.99957654  0.67790905    -0.09300
C3422       C  0.44124545  0.01205021  0.69741155    -0.02300
H3423       H  0.42163096  0.01472454  0.62199681     0.05100
C3424       C  0.42173091  0.98896897  0.62528618     0.20600
H3425       H  0.44715724  0.01124395  0.71767176     0.10300
C3426       C  0.43109490  0.99170093  0.59908732    -0.15700
C3427       C  0.42823525  0.98050230  0.57705764     0.03300
C3428       C  0.41562119  0.96613079  0.58096406    -0.11000
C3429       C  0.40581657  0.96369179  0.60645005    -0.01000
C3430       C  0.40876121  0.97497723  0.62845855    -0.06200
H3431       H  0.44111996  0.00247393  0.59658192     0.06300
H3432       H  0.39601991  0.95283180  0.60983585     0.09700
Br3433     Br  0.43416679  0.98197811  0.68829779    -0.05900
Br3434     Br  0.43448784  0.04410210  0.65079388    -0.02800
Br3435     Br  0.44288839  0.98551380  0.54423070     0.00000
Br3436     Br  0.39504212  0.97076251  0.66284617    -0.04300
C3437       C  0.87094996  0.29328910  0.82913536    -0.11700
C3438       C  0.86755023  0.30394126  0.84136282     0.03700
C3439       C  0.87391829  0.31811881  0.82758852    -0.12300
C3440       C  0.88400782  0.32224418  0.80216325     0.18600
C3441       C  0.88803380  0.31194944  0.79107498    -0.09300
C3442       C  0.88131979  0.29760251  0.80405614    -0.02300
H3443       H  0.87107505  0.32607321  0.83702682     0.05100
C3444       C  0.89093708  0.33764593  0.78919885     0.20600
H3445       H  0.88449030  0.28986805  0.79478885     0.10300
C3446       C  0.89917826  0.34976028  0.80959228    -0.15700
C3447       C  0.90629952  0.36441826  0.79832774     0.03300
C3448       C  0.90556014  0.36721608  0.76583238    -0.11000
C3449       C  0.89667427  0.35517515  0.74575835    -0.01000
C3450       C  0.88924830  0.34051885  0.75722107    -0.06200
H3451       H  0.90009649  0.34779956  0.83447881     0.06300
H3452       H  0.89561660  0.35714554  0.72095122     0.09700
Br3453     Br  0.90351188  0.31727808  0.76006348    -0.05900
Br3454     Br  0.85471914  0.30029144  0.87729524    -0.02800
Br3455     Br  0.91591203  0.38017833  0.82888560     0.00000
Br3456     Br  0.87638848  0.32496005  0.72859061    -0.04300
C3457       C  0.96406239  0.21061058  0.60409047    -0.11700
C3458       C  0.96889437  0.22092971  0.62964142     0.03700
C3459       C  0.98363255  0.22758416  0.64027112    -0.12300
C3460       C  0.99386555  0.22443296  0.62574965     0.18600
C3461       C  0.98924025  0.21443217  0.60010074    -0.09300
C3462       C  0.97446439  0.20753227  0.58969817    -0.02300
H3463       H  0.98720884  0.23543913  0.65979064     0.05100
C3464       C  0.00944406  0.23210317  0.63706123     0.20600
H3465       H  0.97116343  0.19981487  0.56998121     0.10300
C3466       C  0.01347239  0.22597538  0.66197272    -0.15700
C3467       C  0.02810236  0.23317355  0.67358383     0.03300
C3468       C  0.03901214  0.24690114  0.66019613    -0.11000
C3469       C  0.03480126  0.25289702  0.63515193    -0.01000
C3470       C  0.02023726  0.24565200  0.62363120    -0.06200
H3471       H  0.00516818  0.21553779  0.67245727     0.06300
H3472       H  0.04288562  0.26331843  0.62426925     0.09700
Br3473     Br  0.00285585  0.21016957  0.57813163    -0.05900
Br3474     Br  0.95634243  0.22680617  0.65121970    -0.02800
Br3475     Br  0.03213590  0.22357875  0.70774684     0.00000
Br3476     Br  0.01554996  0.25470670  0.58951028    -0.04300
C3477       C  0.91368963  0.21982275  0.52613441    -0.11700
C3478       C  0.92414499  0.23082996  0.50543914     0.03700
C3479       C  0.91955148  0.23806389  0.48431151    -0.12300
C3480       C  0.90467051  0.23458915  0.98362949     0.18600
C3481       C  0.89439487  0.22410618  0.00526448    -0.09300
C3482       C  0.89897635  0.21693847  0.02644530    -0.02300
H3483       H  0.92753933  0.24621307  0.46792743     0.05100
C3484       C  0.89966626  0.24101592  0.95874173     0.20600
H3485       H  0.89076440  0.20842161  0.04190432     0.10300
C3486       C  0.89778941  0.23544181  0.92775504    -0.15700
C3487       C  0.89059815  0.23923291  0.90479158     0.03300
C3488       C  0.88483114  0.24855400  0.91307524    -0.11000
C3489       C  0.88803432  0.25518035  0.94340801    -0.01000
C3490       C  0.89548465  0.25157859  0.96603143    -0.06200
H3491       H  0.90139555  0.22761070  0.92176980     0.06300
H3492       H  0.88415467  0.26270397  0.95017214     0.09700
Br3493     Br  0.87369672  0.21823858  0.00499302    -0.05900
Br3494     Br  0.94481894  0.23657495  0.50517929    -0.02800
Br3495     Br  0.88879766  0.23090370  0.86320223     0.00000
Br3496     Br  0.89932248  0.26092124  0.00694956    -0.04300
C3497       C  0.85094716  0.10303637  0.75106912    -0.11700
C3498       C  0.84702982  0.10323336  0.71921262     0.03700
C3499       C  0.85748834  0.11380263  0.69834688    -0.12300
C3500       C  0.87190291  0.12405558  0.70868174     0.18600
C3501       C  0.87611037  0.12324869  0.73989510    -0.09300
C3502       C  0.86558163  0.11290553  0.76098076    -0.02300
H3503       H  0.85419610  0.11443784  0.67432961     0.05100
C3504       C  0.88181022  0.13645658  0.68765048     0.20600
H3505       H  0.86868732  0.11288054  0.78546402     0.10300
C3506       C  0.87988128  0.14881279  0.68578134    -0.15700
C3507       C  0.88854068  0.16059195  0.66513849     0.03300
C3508       C  0.89938310  0.16002745  0.64566182    -0.11000
C3509       C  0.90151307  0.14773992  0.64845527    -0.01000
C3510       C  0.89283051  0.13602591  0.66914531    -0.06200
H3511       H  0.87142521  0.14918641  0.70023822     0.06300
H3512       H  0.90973440  0.14700668  0.63389807     0.09700
Br3513     Br  0.89586330  0.13658438  0.75497439    -0.05900
Br3514     Br  0.82712841  0.09059858  0.70401117    -0.02800
Br3515     Br  0.88445644  0.17665028  0.66450380     0.00000
Br3516     Br  0.89604237  0.11944478  0.67065372    -0.04300
C3517       C  0.89472716  0.15660344  0.50537626    -0.11700
C3518       C  0.88220407  0.14332529  0.51610575     0.03700
C3519       C  0.87185718  0.13334083  0.99432806    -0.12300
C3520       C  0.87378191  0.13634821  0.96177015     0.18600
C3521       C  0.88641763  0.14943939  0.95089306    -0.09300
C3522       C  0.89686023  0.15942685  0.97267978    -0.02300
H3523       H  0.86229301  0.12317178  0.50280106     0.05100
C3524       C  0.86269056  0.12550969  0.93940962     0.20600
H3525       H  0.90631084  0.16967707  0.96417400     0.10300
C3526       C  0.84937273  0.12546323  0.93411276    -0.15700
C3527       C  0.83901523  0.11580486  0.91176212     0.03300
C3528       C  0.84181417  0.10564850  0.89487794    -0.11000
C3529       C  0.85502921  0.10553395  0.90118585    -0.01000
C3530       C  0.86545277  0.11542052  0.92285308    -0.06200
H3531       H  0.84723435  0.13327661  0.94679850     0.06300
H3532       H  0.85757416  0.09802006  0.88846016     0.09700
Br3533     Br  0.88942226  0.15425861  0.90656980    -0.05900
Br3534     Br  0.87899779  0.13806948  0.56026706    -0.02800
Br3535     Br  0.82179143  0.11768442  0.90490413     0.00000
Br3536     Br  0.88359243  0.11511100  0.92827343    -0.04300
C3537       C  0.70024682  0.12251145  0.58136229    -0.11700
C3538       C  0.68851604  0.12321096  0.59689601     0.03700
C3539       C  0.67435446  0.11648107  0.58308714    -0.12300
C3540       C  0.67149938  0.10878967  0.55421362     0.18600
C3541       C  0.68303147  0.10779230  0.53904145    -0.09300
C3542       C  0.69722161  0.11464436  0.55252903    -0.02300
H3543       H  0.66544982  0.11710776  0.59510490     0.05100
C3544       C  0.65637489  0.10162866  0.54048869     0.20600
H3545       H  0.70595734  0.11383317  0.54022947     0.10300
C3546       C  0.65396142  0.10727761  0.51242039    -0.15700
C3547       C  0.63988471  0.10049271  0.99823727     0.03300
C3548       C  0.62783367  0.08777297  0.51243214    -0.11000
C3549       C  0.63036149  0.08224920  0.54069881    -0.01000
C3550       C  0.64443122  0.08902808  0.55467553    -0.06200
H3551       H  0.66314953  0.11696991  0.00132797     0.06300
H3552       H  0.62134909  0.07253420  0.55207887     0.09700
Br3553     Br  0.67973776  0.09665171  0.00052407    -0.05900
Br3554     Br  0.69068088  0.13238595  0.63762669    -0.02800
Br3555     Br  0.63826116  0.10889204  0.95903683     0.00000
Br3556     Br  0.64693058  0.08029903  0.59244583    -0.04300
C3557       C  0.82323928  0.22468704  0.78988550    -0.11700
C3558       C  0.82344888  0.21254340  0.77518312     0.03700
C3559       C  0.81253904  0.20384555  0.75285745    -0.12300
C3560       C  0.80126815  0.20687674  0.74489972     0.18600
C3561       C  0.80093684  0.21884329  0.75955103    -0.09300
C3562       C  0.81185514  0.22762782  0.78170603    -0.02300
H3563       H  0.81274966  0.19453568  0.74178536     0.05100
C3564       C  0.79001704  0.19735492  0.72120575     0.20600
H3565       H  0.81136761  0.23680530  0.79267215     0.10300
C3566       C  0.77570542  0.18652676  0.73127355    -0.15700
C3567       C  0.76536088  0.17625562  0.70973232     0.03300
C3568       C  0.76932950  0.17683489  0.67746734    -0.11000
C3569       C  0.78351298  0.18804517  0.66741283    -0.01000
C3570       C  0.79380096  0.19823697  0.68892307    -0.06200
H3571       H  0.77278872  0.18570693  0.75619402     0.06300
H3572       H  0.78675032  0.18869923  0.64272607     0.09700
Br3573     Br  0.78592305  0.22371979  0.74967454    -0.05900
Br3574     Br  0.83770558  0.20663198  0.78517353    -0.02800
Br3575     Br  0.74671730  0.16085154  0.72641377     0.00000
Br3576     Br  0.81301272  0.21302495  0.67331469    -0.04300
C3577       C  0.76611270  0.17104676  0.53587336    -0.11700
C3578       C  0.76796627  0.18545996  0.53309794     0.03700
C3579       C  0.77815000  0.19554271  0.51114254    -0.12300
C3580       C  0.78652767  0.19162055  0.99148675     0.18600
C3581       C  0.78434466  0.17714855  0.99336139    -0.09300
C3582       C  0.77419703  0.16702089  0.01531048    -0.02300
H3583       H  0.77981389  0.20668123  0.50988579     0.05100
C3584       C  0.79797204  0.20301837  0.97033790     0.20600
H3585       H  0.77293621  0.15605325  0.01680610     0.10300
C3586       C  0.81303323  0.20789059  0.97590646    -0.15700
C3587       C  0.82413799  0.21837963  0.95601585     0.03300
C3588       C  0.82028070  0.22445494  0.93052785    -0.11000
C3589       C  0.80528617  0.22003713  0.92562768    -0.01000
C3590       C  0.79412138  0.20927682  0.94514057    -0.06200
H3591       H  0.81613577  0.20336370  0.99558424     0.06300
H3592       H  0.80219873  0.22443613  0.90569127     0.09700
Br3593     Br  0.79500016  0.17070038  0.96656783    -0.05900
Br3594     Br  0.75765824  0.19264737  0.55906258    -0.02800
Br3595     Br  0.84446201  0.22425492  0.96479962     0.00000
Br3596     Br  0.77374051  0.20267815  0.93513803    -0.04300
C3597       C  0.75414598  0.11562341  0.65994105    -0.11700
C3598       C  0.76610889  0.11357185  0.65067177     0.03700
C3599       C  0.77159416  0.10717547  0.67186605    -0.12300
C3600       C  0.76553707  0.10285154  0.70239571     0.18600
C3601       C  0.75340481  0.10448491  0.71137034    -0.09300
C3602       C  0.74773808  0.11066542  0.69016329    -0.02300
H3603       H  0.78103612  0.10606848  0.66491579     0.05100
C3604       C  0.77278941  0.09775387  0.72521016     0.20600
H3605       H  0.73860518  0.11211371  0.69794185     0.10300
C3606       C  0.78074719  0.10703252  0.75067333    -0.15700
C3607       C  0.78869458  0.10319897  0.77151092     0.03300
C3608       C  0.78884028  0.08979159  0.76690146    -0.11000
C3609       C  0.78062234  0.08040804  0.74158527    -0.01000
C3610       C  0.77261365  0.08426153  0.72093232    -0.06200
H3611       H  0.78106889  0.11752853  0.75387996     0.06300
H3612       H  0.78053040  0.07007205  0.73760217     0.09700
Br3613     Br  0.74445705  0.09879466  0.75266218    -0.05900
Br3614     Br  0.77628501  0.12004022  0.61062156    -0.02800
Br3615     Br  0.79987581  0.11739785  0.80411377     0.00000
Br3616     Br  0.76145977  0.07073990  0.68737125    -0.04300
C3617       C  0.57592250  0.70157810  0.91907640    -0.11700
C3618       C  0.58252154  0.69268502  0.92235413     0.03700
C3619       C  0.57413220  0.67815091  0.93396468    -0.12300
C3620       C  0.55910612  0.67210672  0.94250482     0.18600
C3621       C  0.55240871  0.68089464  0.93868305    -0.09300
C3622       C  0.56077746  0.69542963  0.92674373    -0.02300
H3623       H  0.57945641  0.67157471  0.93683480     0.05100
C3624       C  0.55104805  0.65694193  0.95673792     0.20600
H3625       H  0.55554852  0.70212072  0.92443446     0.10300
C3626       C  0.54599189  0.65516761  0.98826922    -0.15700
C3627       C  0.53973019  0.64131796  0.50357089     0.03300
C3628       C  0.53876628  0.62890487  0.98749036    -0.11000
C3629       C  0.54357840  0.63069000  0.95569706    -0.01000
C3630       C  0.54951199  0.64443126  0.94027441    -0.06200
H3631       H  0.54723891  0.66471144  0.50134621     0.06300
H3632       H  0.54263141  0.62128455  0.94254684     0.09700
Br3633     Br  0.53194483  0.67363520  0.44952261    -0.05900
Br3634     Br  0.60282295  0.69958010  0.91043380    -0.02800
Br3635     Br  0.53346642  0.64047212  0.54677722     0.00000
Br3636     Br  0.55499255  0.64541441  0.89639309    -0.04300
C3637       C  0.76418848  0.79756488  0.66156590    -0.11700
C3638       C  0.77591581  0.79726878  0.67780903     0.03700
C3639       C  0.78350703  0.79085804  0.66324057    -0.12300
C3640       C  0.77980061  0.78490964  0.63252606     0.18600
C3641       C  0.76844048  0.78553916  0.61606393    -0.09300
C3642       C  0.76075442  0.79177986  0.63055470    -0.02300
H3643       H  0.79217033  0.79026129  0.67613440     0.05100
C3644       C  0.78677309  0.77673868  0.61910490     0.20600
H3645       H  0.75195362  0.79201018  0.61742079     0.10300
C3646       C  0.78092562  0.76184008  0.62764571    -0.15700
C3647       C  0.78644553  0.75325225  0.61431054     0.03300
C3648       C  0.79830904  0.75968002  0.59200545    -0.11000
C3649       C  0.80412228  0.77470148  0.58351158    -0.01000
C3650       C  0.79843443  0.78319939  0.59680726    -0.06200
H3651       H  0.77178165  0.75677326  0.64446808     0.06300
H3652       H  0.81320446  0.77992567  0.56660825     0.09700
Br3653     Br  0.76270518  0.77750804  0.57408887    -0.05900
Br3654     Br  0.78180977  0.80476234  0.72016338    -0.02800
Br3655     Br  0.77672245  0.73278208  0.62736883     0.00000
Br3656     Br  0.80685346  0.80355346  0.58396403    -0.04300
C3657       C  0.63853673  0.75292790  0.84731702    -0.11700
C3658       C  0.65321945  0.76186201  0.85889544     0.03700
C3659       C  0.66536235  0.76698547  0.83802218    -0.12300
C3660       C  0.66324114  0.76336781  0.80568308     0.18600
C3661       C  0.64878256  0.75359972  0.79454834    -0.09300
C3662       C  0.63662233  0.74849679  0.81524242    -0.02300
H3663       H  0.67650941  0.77429653  0.84685631     0.05100
C3664       C  0.67610814  0.77066275  0.78369881     0.20600
H3665       H  0.62555332  0.74147399  0.80576133     0.10300
C3666       C  0.68745723  0.76714254  0.78506372    -0.15700
C3667       C  0.70010756  0.77445536  0.76555414     0.03300
C3668       C  0.70144303  0.78542467  0.74398268    -0.11000
C3669       C  0.68991202  0.78870625  0.74241896    -0.01000
C3670       C  0.67748490  0.78165138  0.76232453    -0.06200
H3671       H  0.68652299  0.75876830  0.80159502     0.06300
H3672       H  0.69088102  0.79736006  0.72668399     0.09700
Br3673     Br  0.64510221  0.74725573  0.75105028    -0.05900
Br3674     Br  0.65768251  0.76792313  0.90243640    -0.02800
Br3675     Br  0.71496469  0.76879466  0.76919263     0.00000
Br3676     Br  0.66329837  0.78829909  0.76113562    -0.04300
C3677       C  0.57622438  0.87157944  0.67444317    -0.11700
C3678       C  0.56403063  0.87082221  0.65801227     0.03700
C3679       C  0.55625431  0.87739020  0.67117554    -0.12300
C3680       C  0.56050003  0.88489591  0.70040763     0.18600
C3681       C  0.57279882  0.88591052  0.71638805    -0.09300
C3682       C  0.58048636  0.87929700  0.70348589    -0.02300
H3683       H  0.54698011  0.87681899  0.65836812     0.05100
C3684       C  0.55237224  0.89204010  0.71369319     0.20600
H3685       H  0.58985910  0.88016486  0.71643211     0.10300
C3686       C  0.54226594  0.88520212  0.73876761    -0.15700
C3687       C  0.53508336  0.89208762  0.75319619     0.03300
C3688       C  0.53792019  0.90616574  0.74236421    -0.11000
C3689       C  0.54808508  0.91291176  0.71709790    -0.01000
C3690       C  0.55528770  0.90602532  0.70294370    -0.06200
H3691       H  0.54010064  0.87450108  0.74743873     0.06300
H3692       H  0.55056631  0.92369262  0.70830673     0.09700
Br3693     Br  0.57979002  0.89666450  0.75552281    -0.05900
Br3694     Br  0.55811528  0.86199254  0.61669674    -0.02800
Br3695     Br  0.52177227  0.88157435  0.78766046     0.00000
Br3696     Br  0.56948840  0.91635573  0.66974854    -0.04300
C3697       C  0.59507008  0.76574203  0.97649495    -0.11700
C3698       C  0.58162675  0.76574571  0.98227807     0.03700
C3699       C  0.58111270  0.77508542  0.50560800    -0.12300
C3700       C  0.59362375  0.78429735  0.52401147     0.18600
C3701       C  0.60658581  0.78334446  0.52032076    -0.09300
C3702       C  0.60727223  0.77424973  0.99653413    -0.02300
H3703       H  0.57094319  0.77540583  0.50900158     0.05100
C3704       C  0.59312078  0.79531895  0.54564039     0.20600
H3705       H  0.61758641  0.77422447  0.99310160     0.10300
C3706       C  0.59395097  0.79395623  0.57854324    -0.15700
C3707       C  0.59423672  0.80465227  0.59925560     0.03300
C3708       C  0.59314343  0.81669423  0.58715840    -0.11000
C3709       C  0.59176625  0.81776192  0.55437178    -0.01000
C3710       C  0.59200889  0.80735285  0.53359671    -0.06200
H3711       H  0.59469438  0.78470378  0.58807993     0.06300
H3712       H  0.59132601  0.82717104  0.54475621     0.09700
Br3713     Br  0.62389563  0.79480208  0.54602920    -0.05900
Br3714     Br  0.56345970  0.75347793  0.95953875    -0.02800
Br3715     Br  0.59608026  0.80225655  0.64386627     0.00000
Br3716     Br  0.59209819  0.81077243  0.98886984    -0.04300
C3717       C  0.60158721  0.82894860  0.72311793    -0.11700
C3718       C  0.59008276  0.82228916  0.74592677     0.03700
C3719       C  0.58977618  0.81183885  0.76722986    -0.12300
C3720       C  0.60073455  0.80778405  0.76611359     0.18600
C3721       C  0.61240775  0.81464926  0.74388177    -0.09300
C3722       C  0.61284629  0.82524479  0.72285135    -0.02300
H3723       H  0.58089994  0.80678020  0.78465144     0.05100
C3724       C  0.59991148  0.79654119  0.78867572     0.20600
H3725       H  0.62165889  0.83009383  0.70524914     0.10300
C3726       C  0.59146037  0.78135000  0.78111465    -0.15700
C3727       C  0.59055411  0.77046500  0.80207923     0.03300
C3728       C  0.59814362  0.77480364  0.83141494    -0.11000
C3729       C  0.60646943  0.79007781  0.83878731    -0.01000
C3730       C  0.60742814  0.80085823  0.81777131    -0.06200
H3731       H  0.58569064  0.77796973  0.75861978     0.06300
H3732       H  0.61241937  0.79374749  0.86103317     0.09700
Br3733     Br  0.62761225  0.80942638  0.74061323    -0.05900
Br3734     Br  0.57478791  0.82736613  0.74973593    -0.02800
Br3735     Br  0.57938420  0.75010441  0.78837300     0.00000
Br3736     Br  0.61931041  0.82139548  0.82966831    -0.04300
C3737       C  0.76056675  0.96390921  0.91577720    -0.11700
C3738       C  0.77180267  0.97605888  0.93304543     0.03700
C3739       C  0.77896003  0.99037033  0.91975081    -0.12300
C3740       C  0.77508782  0.99289885  0.88955624     0.18600
C3741       C  0.76377393  0.98091528  0.87259617    -0.09300
C3742       C  0.75666608  0.96662935  0.88565156    -0.02300
H3743       H  0.78752567  0.99961922  0.93313106     0.05100
C3744       C  0.78267418  0.00816212  0.87638501     0.20600
H3745       H  0.74805735  0.95757516  0.87194105     0.10300
C3746       C  0.79410424  0.01236104  0.85394953    -0.15700
C3747       C  0.80135335  0.02668600  0.84071551     0.03300
C3748       C  0.79721209  0.03719278  0.85021119    -0.11000
C3749       C  0.78564257  0.03278455  0.87260276    -0.01000
C3750       C  0.77838063  0.01845310  0.88549897    -0.06200
H3751       H  0.79732331  0.00439380  0.84653664     0.06300
H3752       H  0.78214355  0.04051113  0.88018070     0.09700
Br3753     Br  0.75741433  0.98361546  0.83180035    -0.05900
Br3754     Br  0.77757259  0.97417345  0.97517421    -0.02800
Br3755     Br  0.81639537  0.03076574  0.80933038     0.00000
Br3756     Br  0.76230362  0.01322354  0.91477366    -0.04300
C3757       C  0.74322844  0.89473213  0.51401741    -0.11700
C3758       C  0.73102979  0.88592737  0.53407923     0.03700
C3759       C  0.73176115  0.87603466  0.55517079    -0.12300
C3760       C  0.74440795  0.87456547  0.55619638     0.18600
C3761       C  0.75651923  0.88318186  0.53582152    -0.09300
C3762       C  0.75596000  0.89339028  0.01523948    -0.02300
H3763       H  0.72240413  0.86940258  0.57077002     0.05100
C3764       C  0.74459197  0.86388709  0.57868178     0.20600
H3765       H  0.76519325  0.89981371  0.99921300     0.10300
C3766       C  0.73526710  0.84860380  0.57329535    -0.15700
C3767       C  0.73443975  0.83814361  0.59516770     0.03300
C3768       C  0.74302260  0.84303408  0.62314018    -0.11000
C3769       C  0.75253110  0.85837887  0.62808073    -0.01000
C3770       C  0.75328903  0.86877716  0.60627386    -0.06200
H3771       H  0.72855601  0.84481800  0.55201100     0.06300
H3772       H  0.75909417  0.86237405  0.64953042     0.09700
Br3773     Br  0.77354222  0.88065405  0.53394726    -0.05900
Br3774     Br  0.71323927  0.88719833  0.53408497    -0.02800
Br3775     Br  0.72178382  0.81749255  0.58478197     0.00000
Br3776     Br  0.76571241  0.88952999  0.61606568    -0.04300
C3777       C  0.74842444  0.84787630  0.76461366    -0.11700
C3778       C  0.76260992  0.86037833  0.77037165     0.03700
C3779       C  0.76396076  0.87159994  0.79102042    -0.12300
C3780       C  0.75134184  0.87049458  0.80595800     0.18600
C3781       C  0.73727569  0.85790156  0.80053639    -0.09300
C3782       C  0.73592846  0.84678761  0.78003502    -0.02300
H3783       H  0.77481299  0.88130900  0.79505515     0.05100
C3784       C  0.75270503  0.88237750  0.82728767     0.20600
H3785       H  0.72496327  0.83723893  0.77594878     0.10300
C3786       C  0.74622104  0.89079390  0.81827252    -0.15700
C3787       C  0.74432215  0.89979676  0.84026407     0.03300
C3788       C  0.74925062  0.90067782  0.87168211    -0.11000
C3789       C  0.75685446  0.89320713  0.87988186    -0.01000
C3790       C  0.75846309  0.88396405  0.85805365    -0.06200
H3791       H  0.74189548  0.88971120  0.79448025     0.06300
H3792       H  0.76075503  0.89382399  0.90392769     0.09700
Br3793     Br  0.71951161  0.85525087  0.82082193    -0.05900
Br3794     Br  0.78022830  0.86327925  0.74904159    -0.02800
Br3795     Br  0.73487129  0.91050286  0.82612219     0.00000
Br3796     Br  0.76721377  0.87259550  0.87221052    -0.04300
C3797       C  0.69986948  0.91140150  0.98910470    -0.11700
C3798       C  0.69821984  0.92168526  0.50814868     0.03700
C3799       C  0.68560723  0.91676647  0.52755975    -0.12300
C3800       C  0.67466049  0.90164974  0.52880079     0.18600
C3801       C  0.67624971  0.89140561  0.50968730    -0.09300
C3802       C  0.68863644  0.89634711  0.98971394    -0.02300
H3803       H  0.68443629  0.92472034  0.54212521     0.05100
C3804       C  0.66179786  0.89654642  0.55062982     0.20600
H3805       H  0.68987388  0.88823789  0.97586742     0.10300
C3806       C  0.64765973  0.89193411  0.53816980    -0.15700
C3807       C  0.63493596  0.88516350  0.55750584     0.03300
C3808       C  0.63626188  0.88265644  0.59004046    -0.11000
C3809       C  0.65060396  0.88831258  0.60274287    -0.01000
C3810       C  0.66328182  0.89520677  0.58339737    -0.06200
H3811       H  0.64648696  0.89323995  0.51304828     0.06300
H3812       H  0.65197829  0.88672621  0.62760542     0.09700
Br3813     Br  0.66236935  0.87040114  0.01196081    -0.05900
Br3814     Br  0.71263800  0.94256979  0.50821907    -0.02800
Br3815     Br  0.61628057  0.87960800  0.53753612     0.00000
Br3816     Br  0.68227948  0.90159842  0.60242899    -0.04300
loop_ 
_geom_bond_atom_site_label_1 
_geom_bond_atom_site_label_2 
_geom_bond_distance 
_geom_bond_site_symmetry_2 
_ccdc_geom_bond_type 
In1           O3   2.233       .  S
In1           O4   2.245       .  S
In1          O12   2.225       .  S
In1           O6   2.252       .  S
In1           O8   2.250       .  S
In1           O9   2.242       .  S
In1          O10   2.204       .  S
In1          O13   2.228       .  S
C2            O8   1.268       .  A
C2           O10   1.259       .  A
C2         C3757   1.464       .  S
O3           C11   1.263       .  A
O4           C11   1.266       .  A
C5           O12   1.263       .  A
C5            O6   1.265       .  A
C5         C1829   1.487       .  S
C7            O9   1.266       .  A
C7           O13   1.260       .  A
C7         C1880   1.474       .  S
C11        C1889   1.480       .  S
In14         O16   2.242       .  S
In14         O17   2.249       .  S
In14         O25   2.239       .  S
In14         O19   2.270       .  S
In14         O21   2.268       .  S
In14         O22   2.250       .  S
In14         O23   2.221       .  S
In14         O26   2.241       .  S
C15          O21   1.267       .  A
C15          O23   1.257       .  A
C15        C1800   1.474       .  S
O16          C24   1.259       .  A
O17          C24   1.264       .  A
C18          O25   1.262       .  A
C18          O19   1.265       .  A
C18        C1769   1.490       .  S
C20          O22   1.265       .  A
C20          O26   1.263       .  A
C20        C1809   1.480       .  S
C24        C1900   1.487       .  S
In27         O29   2.224       .  S
In27         O30   2.243       .  S
In27         O38   2.231       .  S
In27         O32   2.250       .  S
In27         O34   2.259       .  S
In27         O35   2.234       .  S
In27         O36   2.205       .  S
In27         O39   2.252       .  S
C28          O34   1.265       .  A
C28          O36   1.259       .  A
C28        C1869   1.472       .  S
O29          C37   1.260       .  A
O30          C37   1.262       .  A
C31          O38   1.261       .  A
C31          O32   1.262       .  A
C31        C1729   1.485       .  S
C33          O35   1.262       .  A
C33          O39   1.262       .  A
C33        C1760   1.481       .  S
C37        C1860   1.476       .  S
In40         O42   2.224       .  S
In40         O43   2.263       .  S
In40         O51   2.234       .  S
In40         O45   2.262       .  S
In40         O47   2.264       .  S
In40         O48   2.249       .  S
In40         O49   2.216       .  S
In40         O52   2.235       .  S
C41          O47   1.267       .  A
C41          O49   1.260       .  A
C41        C1820   1.486       .  S
O42          C50   1.259       .  A
O43          C50   1.266       .  A
C44          O51   1.261       .  A
C44          O45   1.265       .  A
C44        C1709   1.482       .  S
C46          O48   1.265       .  A
C46          O52   1.263       .  A
C46        C1749   1.489       .  S
C50        C1789   1.489       .  S
In53         O55   2.236       .  S
In53         O56   2.242       .  S
In53         O64   2.237       .  S
In53         O58   2.257       .  S
In53         O60   2.266       .  S
In53         O61   2.243       .  S
In53         O62   2.217       .  S
In53         O65   2.223       .  S
C54          O60   1.267       .  A
C54          O62   1.259       .  A
C54        C1660   1.479       .  S
O55          C63   1.262       .  A
O56          C63   1.261       .  A
C57          O64   1.261       .  A
C57          O58   1.263       .  A
C57        C1629   1.487       .  S
C59          O61   1.265       .  A
C59          O65   1.260       .  A
C59        C1669   1.483       .  S
C63        C1689   1.486       .  S
In66         O68   2.250       .  S
In66         O69   2.250       .  S
In66         O77   2.248       .  S
In66         O71   2.260       .  S
In66         O73   2.263       .  S
In66         O74   2.250       .  S
In66         O75   2.231       .  S
In66         O78   2.225       .  S
C67          O73   1.262       .  A
C67          O75   1.256       .  A
C67        C1589   1.470       .  S
O68          C76   1.260       .  A
O69          C76   1.260       .  A
C70          O77   1.261       .  A
C70          O71   1.260       .  A
C70        C1840   1.490       .  S
C72          O74   1.264       .  A
C72          O78   1.264       .  A
C72        C1620   1.486       .  S
C76        C1700   1.485       .  S
In79         O81   2.221       .  S
In79         O82   2.239       .  S
In79         O90   2.235       .  S
In79         O84   2.254       .  S
In79         O86   2.275       .  S
In79         O87   2.244       .  S
In79         O88   2.212       .  S
In79         O91   2.227       .  S
C80          O86   1.268       .  A
C80          O88   1.258       .  A
C80        C1609   1.475       .  S
O81          C89   1.264       .  A
O82          C89   1.265       .  A
C83          O90   1.261       .  A
C83          O84   1.267       .  A
C83        C1549   1.491       .  S
C85          O87   1.265       .  A
C85          O91   1.261       .  A
C85        C1569   1.477       .  S
C89        C1600   1.483       .  S
In92         O94   2.224       .  S
In92         O95   2.258       .  S
In92        O103   2.250       .  S
In92         O97   2.248       .  S
In92         O99   2.262       .  S
In92        O100   2.247       .  S
In92        O101   2.221       .  S
In92        O104   2.231       .  S
C93          O99   1.266       .  A
C93         O101   1.259       .  A
C93        C1680   1.470       .  S
O94         C102   1.260       .  A
O95         C102   1.265       .  A
C96         O103   1.264       .  A
C96          O97   1.264       .  A
C96        C1529   1.494       .  S
C98         O100   1.266       .  A
C98         O104   1.263       .  A
C98        C1580   1.488       .  S
C102       C1649   1.486       .  S
In105       O110   2.254       .  S
In105       O112   2.270       .  S
In105       O113   2.242       .  S
In105       O114   2.211       .  S
In105       O117   2.241       .  S
In105      O2015   2.235   1_554  S
In105      O2016   2.256   1_554  S
In105      O2024   2.232   1_554  S
C106        O112   1.266       .  A
C106        O114   1.258       .  A
C106       C1500   1.472       .  S
O107      In2013   2.235       .  S
O107        C115   1.260       .  A
O108      In2013   2.256       .  S
O108        C115   1.264       .  A
C109        O110   1.264       .  A
C109       O2024   1.262   1_554  A
C109       C3357   1.490   1_554  S
C111        O113   1.264       .  A
C111        O117   1.263       .  A
C111       C1520   1.486       .  S
C115       C1469   1.481       .  S
O116      In2013   2.232       .  S
O116       C2017   1.262       .  A
In118       O120   2.230       .  S
In118       O121   2.247       .  S
In118       O129   2.229       .  S
In118       O123   2.249       .  S
In118       O125   2.259       .  S
In118       O126   2.241       .  S
In118       O127   2.223       .  S
In118       O130   2.232       .  S
C119        O125   1.265       .  A
C119        O127   1.258       .  A
C119       C1429   1.472       .  S
O120        C128   1.260       .  A
O121        C128   1.262       .  A
C122        O129   1.261       .  A
C122        O123   1.263       .  A
C122       C1389   1.484       .  S
C124        O126   1.265       .  A
C124        O130   1.262       .  A
C124       C1509   1.483       .  S
C128       C1420   1.484       .  S
In131       O133   2.238       .  S
In131       O134   2.241       .  S
In131       O142   2.242       .  S
In131       O136   2.259       .  S
In131       O138   2.274       .  S
In131       O139   2.241       .  S
In131       O140   2.207       .  S
In131       O143   2.225       .  S
C132        O138   1.270       .  A
C132        O140   1.258       .  A
C132       C1480   1.481       .  S
O133        C141   1.263       .  A
O134        C141   1.264       .  A
C135        O142   1.262       .  A
C135        O136   1.266       .  A
C135       C1780   1.495       .  S
C137        O139   1.266       .  A
C137        O143   1.261       .  A
C137       C1489   1.478       .  S
C141       C1380   1.484       .  S
In144       O146   2.240       .  S
In144       O147   2.242       .  S
In144       O149   2.249       .  S
In144       O151   2.262       .  S
In144       O153   2.202       .  S
In144      O2063   2.228       .  S
In144      O2060   2.243       .  S
In144      O2064   2.229       .  S
C145        O151   1.267       .  A
C145        O153   1.258       .  A
C145       C1409   1.468       .  S
O146        C154   1.261       .  A
O147        C154   1.262       .  A
C148        O155   1.261   1_556  A
C148       O2057   1.263       .  A
C148       C1640   1.485   1_556  S
O149       C2056   1.263       .  A
C150        O152   1.266       .  A
C150        O156   1.262       .  A
C150       C1440   1.479       .  S
O152      In2052   2.243   1_554  S
C154       C1369   1.487       .  S
O155      In2052   2.228   1_554  S
O156      In2052   2.229   1_554  S
In157       O159   2.229       .  S
In157       O160   2.246       .  S
In157       O168   2.228       .  S
In157       O162   2.261       .  S
In157       O164   2.261       .  S
In157       O165   2.254       .  S
In157       O166   2.206       .  S
In157       O169   2.230       .  S
C158        O164   1.268       .  A
C158        O166   1.259       .  A
C158       C1320   1.474   1_554  S
O159        C167   1.261       .  A
O160        C167   1.267       .  A
C161        O168   1.260       .  A
C161        O162   1.266       .  A
C161       C1740   1.489       .  S
C163        O165   1.265       .  A
C163        O169   1.261       .  A
C163       C1360   1.480       .  S
C167       C1340   1.484       .  S
In170       O172   2.236       .  S
In170       O173   2.252       .  S
In170       O181   2.238       .  S
In170       O175   2.261       .  S
In170       O177   2.271       .  S
In170       O178   2.254       .  S
In170       O179   2.202       .  S
In170       O182   2.233       .  S
C171        O177   1.269       .  A
C171        O179   1.260       .  A
C171       C1289   1.475       .  S
O172        C180   1.260       .  A
O173        C180   1.266       .  A
C174        O181   1.261       .  A
C174        O175   1.265       .  A
C174       C1249   1.488       .  S
C176        O178   1.266       .  A
C176        O182   1.261       .  A
C176       C1349   1.476       .  S
C180       C1269   1.490       .  S
In183       O185   2.241       .  S
In183       O186   2.241       .  S
In183       O194   2.227       .  S
In183       O188   2.263       .  S
In183       O190   2.270       .  S
In183       O191   2.248       .  S
In183       O192   2.203       .  S
In183       O195   2.231       .  S
C184        O190   1.267       .  A
C184        O192   1.258       .  A
C184       C1329   1.473       .  S
O185        C193   1.262       .  A
O186        C193   1.262       .  A
C187        O194   1.259       .  A
C187        O188   1.265       .  A
C187       C1220   1.489       .  S
C189        O191   1.265       .  A
C189        O195   1.261       .  A
C189       C1309   1.486       .  S
C193       C1229   1.486       .  S
In196       O198   2.249       .  S
In196       O199   2.236       .  S
In196       O207   2.226       .  S
In196       O201   2.259       .  S
In196       O203   2.269       .  S
In196       O204   2.244       .  S
In196       O205   2.209       .  S
In196       O208   2.232       .  S
C197        O203   1.269       .  A
C197        O205   1.259       .  A
C197       C1280   1.478       .  S
O198        C206   1.263       .  A
O199        C206   1.263       .  A
C200        O207   1.261       .  A
C200        O201   1.265       .  A
C200       C1189   1.486       .  S
C202        O204   1.265       .  A
C202        O208   1.262       .  A
C202       C1300   1.476       .  S
C206       C1240   1.482       .  S
In209       O211   2.225       .  S
In209       O212   2.256       .  S
In209       O220   2.245       .  S
In209       O214   2.250       .  S
In209       O216   2.260       .  S
In209       O217   2.254       .  S
In209       O218   2.217       .  S
In209       O221   2.221       .  S
C210        O216   1.267       .  A
C210        O218   1.259       .  A
C210       C1129   1.477       .  S
O211        C219   1.259       .  A
O212        C219   1.266       .  A
C213        O220   1.263       .  A
C213        O214   1.263       .  A
C213       C1120   1.491       .  S
C215        O217   1.267       .  A
C215        O221   1.260       .  A
C215       C1160   1.486       .  S
C219       C1180   1.486       .  S
In222       O224   2.237       .  S
In222       O225   2.258       .  S
In222       O227   2.250       .  S
In222       O229   2.258       .  S
In222       O231   2.211       .  S
In222      O2141   2.243       .  S
In222      O2138   2.240       .  S
In222      O2142   2.227       .  S
C223        O229   1.264       .  A
C223        O231   1.256       .  A
C223       C1080   1.466       .  S
O224        C232   1.258       .  A
O225        C232   1.264       .  A
C226        O233   1.263       .  A
C226       O2135   1.262   1_554  A
C226       C1049   1.490       .  S
O227       C2134   1.262       .  A
C228        O230   1.266       .  A
C228        O234   1.263       .  A
C228       C1100   1.479       .  S
O230      In2130   2.241   1_554  S
C232       C1169   1.487       .  S
O233      In2130   2.243   1_554  S
O234      In2130   2.227   1_554  S
In235       O240   2.266       .  S
In235       O242   2.266       .  S
In235       O243   2.251       .  S
In235       O244   2.211       .  S
In235       O247   2.241       .  S
In235      O2145   2.221   1_554  S
In235      O2146   2.257   1_554  S
In235      O2154   2.237   1_554  S
C236        O242   1.268       .  A
C236        O244   1.259       .  A
C236       C1149   1.472       .  S
O237      In2143   2.221       .  S
O237        C245   1.260       .  A
O238      In2143   2.257       .  S
O238        C245   1.267       .  A
C239        O246   1.263       .  A
C239       O2148   1.266       .  A
C239       C1720   1.491       .  S
O240       C2147   1.266       .  A
C241        O243   1.266       .  A
C241        O247   1.264       .  A
C241       C1040   1.489       .  S
C245       C1140   1.477       .  S
O246      In2143   2.237       .  S
In248       O250   2.223       .  S
In248       O251   2.247       .  S
In248       O259   2.239       .  S
In248       O253   2.259       .  S
In248       O255   2.264       .  S
In248       O256   2.261       .  S
In248       O257   2.205       .  S
In248       O260   2.228       .  S
C249        O255   1.269       .  A
C249        O257   1.260       .  A
C249       C1089   1.476       .  S
O250        C258   1.262       .  A
O251        C258   1.265       .  A
C252        O259   1.260       .  A
C252        O253   1.265       .  A
C252       C1260   1.489       .  S
C254        O256   1.264       .  A
C254        O260   1.260       .  A
C254       C1029   1.474       .  S
C258       C1069   1.484       .  S
In261       O263   2.239       .  S
In261       O264   2.238       .  S
In261       O272   2.227       .  S
In261       O266   2.264       .  S
In261       O268   2.268       .  S
In261       O269   2.241       .  S
In261       O270   2.220       .  S
In261       O273   2.230       .  S
C262        O268   1.268       .  A
C262        O270   1.259       .  A
C262        C980   1.483       .  S
O263        C271   1.263       .  A
O264        C271   1.263       .  A
C265        O272   1.260       .  A
C265        O266   1.267       .  A
C265        C949   1.490       .  S
C267        O269   1.266       .  A
C267        O273   1.262       .  A
C267       C1000   1.482       .  S
C271       C1020   1.484       .  S
In274       O276   2.244       .  S
In274       O277   2.241       .  S
In274       O285   2.243       .  S
In274       O279   2.254       .  S
In274       O281   2.265       .  S
In274       O282   2.251       .  S
In274       O283   2.213       .  S
In274       O286   2.239       .  S
C275        O281   1.265       .  A
C275        O283   1.258       .  A
C275        C909   1.468       .  S
O276        C284   1.264       .  A
O277        C284   1.263       .  A
C278        O285   1.258       .  A
C278        O279   1.264       .  A
C278       C1209   1.488       .  S
C280        O282   1.262       .  A
C280        O286   1.258       .  A
C280        C929   1.476       .  S
C284       C1009   1.488       .  S
In287       O289   2.228       .  S
In287       O290   2.249       .  S
In287       O298   2.237       .  S
In287       O292   2.253       .  S
In287       O294   2.259       .  S
In287       O295   2.258       .  S
In287       O296   2.212       .  S
In287       O299   2.237       .  S
C288        O294   1.267       .  A
C288        O296   1.259       .  A
C288        C989   1.472       .  S
O289        C297   1.262       .  A
O290        C297   1.265       .  A
C291        O298   1.261       .  A
C291        O292   1.264       .  A
C291       C1460   1.485       .  S
C293        O295   1.264       .  A
C293        O299   1.261       .  A
C293        C900   1.487       .  S
C297        C969   1.488       .  S
In300       O302   2.231       .  S
In300       O303   2.242       .  S
In300       O311   2.229       .  S
In300       O305   2.250       .  S
In300       O307   2.265       .  S
In300       O308   2.244       .  S
In300       O309   2.200       .  S
In300       O312   2.237       .  S
C301        O307   1.268       .  A
C301        O309   1.258       .  A
C301        C940   1.470       .  S
O302        C310   1.259       .  A
O303        C310   1.265       .  A
C304        O311   1.261       .  A
C304        O305   1.266       .  A
C304        C869   1.483       .  S
C306        O308   1.265       .  A
C306        O312   1.263       .  A
C306        C889   1.477       .  S
C310        C920   1.480       .  S
In313       O315   2.240       .  S
In313       O316   2.251       .  S
In313       O324   2.242       .  S
In313       O318   2.264       .  S
In313       O320   2.263       .  S
In313       O321   2.270       .  S
In313       O322   2.211       .  S
In313       O325   2.239       .  S
C314        O320   1.266       .  A
C314        O322   1.258       .  A
C314        C840   1.468       .  S
O315        C323   1.262       .  A
O316        C323   1.267       .  A
C317        O324   1.262       .  A
C317        O318   1.263       .  A
C317        C789   1.489       .  S
C319        O321   1.265       .  A
C319        O325   1.259       .  A
C319        C849   1.490       .  S
C323        C820   1.492       .  S
In326       O328   2.227       .  S
In326       O329   2.240       .  S
In326       O337   2.229       .  S
In326       O331   2.251       .  S
In326       O333   2.255       .  S
In326       O334   2.250       .  S
In326       O335   2.202       .  S
In326       O338   2.241       .  S
C327        O333   1.268       .  A
C327        O335   1.258       .  A
C327        C780   1.470       .  S
O328        C336   1.262       .  A
O329        C336   1.268       .  A
C330        O337   1.264       .  A
C330        O331   1.265       .  A
C330       C1560   1.489       .  S
C332        O334   1.264       .  A
C332        O338   1.262       .  A
C332        C860   1.488       .  S
C336        C749   1.480       .  S
In339       O341   2.230       .  S
In339       O342   2.238       .  S
In339       O350   2.232       .  S
In339       O344   2.257       .  S
In339       O346   2.274       .  S
In339       O347   2.225       .  S
In339       O348   2.222       .  S
In339       O351   2.230       .  S
C340        O346   1.268       .  A
C340        O348   1.258       .  A
C340        C809   1.479       .  S
O341        C349   1.261       .  A
O342        C349   1.262       .  A
C343        O350   1.261       .  A
C343        O344   1.266       .  A
C343       C1109   1.485       .  S
C345        O347   1.263       .  A
C345        O351   1.264       .  A
C345        C829   1.477       .  S
C349        C740   1.474       .  S
In352       O354   2.228       .  S
In352       O355   2.257       .  S
In352       O363   2.241       .  S
In352       O357   2.244       .  S
In352       O359   2.267       .  S
In352       O360   2.241       .  S
In352       O361   2.213       .  S
In352       O364   2.229       .  S
C353        O359   1.265       .  A
C353        O361   1.257       .  A
C353       C2668   1.475       .  S
O354        C362   1.260       .  A
O355        C362   1.262       .  A
C356        O363   1.262       .  A
C356        O357   1.262       .  A
C356        C709   1.485       .  S
C358        O360   1.264       .  A
C358        O364   1.262       .  A
C358        C769   1.480       .  S
C362        C729   1.486       .  S
In365       O367   2.234       .  S
In365       O368   2.245       .  S
In365       O376   2.235       .  S
In365       O370   2.256       .  S
In365       O372   2.272       .  S
In365       O373   2.236       .  S
In365       O374   2.217       .  S
In365       O377   2.226       .  S
C366        O372   1.268       .  A
C366        O374   1.258       .  A
C366        C649   1.478       .  S
O367        C375   1.261       .  A
O368        C375   1.264       .  A
C369        O376   1.262       .  A
C369        O370   1.265       .  A
C369        C720   1.489       .  S
C371        O373   1.266       .  A
C371        O377   1.262       .  A
C371        C669   1.474       .  S
C375        C700   1.482       .  S
In378       O380   2.235       .  S
In378       O381   2.250       .  S
In378       O389   2.250       .  S
In378       O383   2.244       .  S
In378       O385   2.258       .  S
In378       O386   2.265       .  S
In378       O387   2.220       .  S
In378       O390   2.222       .  S
C379        O385   1.263       .  A
C379        O387   1.259       .  A
C379        C609   1.470       .  S
O380        C388   1.261       .  A
O381        C388   1.265       .  A
C382        O389   1.262       .  A
C382        O383   1.260       .  A
C382       C1060   1.488       .  S
C384        O386   1.264       .  A
C384        O390   1.257       .  A
C384        C629   1.485       .  S
C388        C689   1.486       .  S
In391       O393   2.232       .  S
In391       O394   2.248       .  S
In391       O402   2.235       .  S
In391       O396   2.249       .  S
In391       O398   2.259       .  S
In391       O399   2.249       .  S
In391       O400   2.200       .  S
In391       O403   2.238       .  S
C392        O398   1.266       .  A
C392        O400   1.259       .  A
C392        C680   1.473   1_554  S
O393        C401   1.261       .  A
O394        C401   1.266       .  A
C395        O402   1.262       .  A
C395        O396   1.263       .  A
C395        C880   1.488       .  S
C397        O399   1.264       .  A
C397        O403   1.259       .  A
C397        C589   1.484       .  S
C401        C660   1.485       .  S
In404       O406   2.231       .  S
In404       O407   2.224       .  S
In404       O415   2.219       .  S
In404       O409   2.259       .  S
In404       O411   2.269       .  S
In404       O412   2.232       .  S
In404       O413   2.198       .  S
In404       O416   2.234       .  S
C405        O411   1.268       .  A
C405        O413   1.258       .  A
C405        C640   1.476       .  S
O406        C414   1.263       .  A
O407        C414   1.263       .  A
C408        O415   1.258       .  A
C408        O409   1.265       .  A
C408       C1400   1.484       .  S
C410        O412   1.260       .  A
C410        O416   1.262       .  A
C410        C600   1.481       .  S
C414        C620   1.471       .  S
In417       O419   2.216       .  S
In417       O420   2.246       .  S
In417       O428   2.229       .  S
In417       O422   2.257       .  S
In417       O424   2.262       .  S
In417       O425   2.249       .  S
In417       O426   2.199       .  S
In417       O429   2.220       .  S
C418        O424   1.271       .  A
C418        O426   1.259       .  A
C418        C549   1.479       .  S
O419        C427   1.262       .  A
O420        C427   1.269       .  A
C421        O428   1.263       .  A
C421        O422   1.267       .  A
C421       C1540   1.483       .  S
C423        O425   1.268       .  A
C423        O429   1.262       .  A
C423        C569   1.479       .  S
C427        C529   1.481       .  S
In430       O435   2.247       .  S
In430       O437   2.243       .  S
In430       O438   2.261       .  S
In430       O439   2.228       .  S
In430       O442   2.224       .  S
In430      O2340   2.226   1_554  S
In430      O2341   2.272   1_554  S
In430      O2349   2.242   1_554  S
C431        O437   1.265       .  A
C431        O439   1.262       .  A
C431        C520   1.474       .  S
O432      In2338   2.226       .  S
O432        C440   1.258       .  A
O433      In2338   2.272       .  S
O433        C440   1.267       .  A
C434        O441   1.262       .  A
C434       O2343   1.263       .  A
C434        C800   1.481       .  S
O435       C2342   1.263       .  A
C436        O438   1.268       .  A
C436        O442   1.261       .  A
C436        C580   1.479       .  S
C440        C489   1.487       .  S
O441      In2338   2.242       .  S
In443       O445   2.224       .  S
In443       O446   2.248       .  S
In443       O448   2.242       .  S
In443       O450   2.259       .  S
In443       O452   2.208       .  S
In443      O2362   2.223       .  S
In443      O2359   2.251       .  S
In443      O2363   2.223       .  S
C444        O450   1.268       .  A
C444        O452   1.259       .  A
C444        C540   1.477       .  S
O445        C453   1.260       .  A
O446        C453   1.266       .  A
C447        O454   1.262   1_556  A
C447       O2356   1.264       .  A
C447       C1200   1.484   1_556  S
O448       C2355   1.264       .  A
C449        O451   1.266       .  A
C449        O455   1.261       .  A
C449        C560   1.476       .  S
O451      In2351   2.251   1_554  S
C453        C469   1.479       .  S
O454      In2351   2.223   1_554  S
O455      In2351   2.223   1_554  S
In456       O458   2.228       .  S
In456       O459   2.242       .  S
In456       O467   2.228       .  S
In456       O461   2.265       .  S
In456       O463   2.269       .  S
In456       O464   2.241       .  S
In456       O465   2.212       .  S
In456       O468   2.226       .  S
C457        O463   1.272       .  A
C457        O465   1.260       .  A
C457        C500   1.483       .  S
O458        C466   1.262       .  A
O459        C466   1.267       .  A
C460        O467   1.261       .  A
C460        O461   1.270       .  A
C460        C960   1.494       .  S
C462        O464   1.267       .  A
C462        O468   1.264       .  A
C462        C509   1.478       .  S
C466        C480   1.485       .  S
C469        C470   1.415       .  A
C469        C474   1.404       .  A
C470        C471   1.401       .  A
C470       Br486   1.921       .  S
C471        C472   1.401       .  A
C471        H475   1.083       .  S
C472        C476   1.477   1_655  S
C472        C473   1.407       .  A
C473        C474   1.397       .  A
C473       Br485   1.920   1_655  S
C474        H477   1.083       .  S
C476        C478   1.400       .  A
C476        C482   1.406       .  A
C478        C479   1.401       .  A
C478        H483   1.084       .  S
C479        C480   1.418       .  A
C479       Br487   1.921       .  S
C480        C481   1.406       .  A
C481        C482   1.398       .  A
C481        H484   1.083       .  S
C482       Br488   1.919   1_455  S
C489        C490   1.417       .  A
C489        C494   1.405       .  A
C490        C491   1.402       .  A
C490       Br506   1.922       .  S
C491        C492   1.401       .  A
C491        H495   1.083       .  S
C492        C496   1.485       .  S
C492        C493   1.409       .  A
C493        C494   1.402       .  A
C493       Br505   1.919       .  S
C494        H497   1.083       .  S
C496        C498   1.401       .  A
C496        C502   1.410       .  A
C498        C499   1.400       .  A
C498        H503   1.084       .  S
C499        C500   1.416       .  A
C499       Br507   1.923       .  S
C500        C501   1.404       .  A
C501        C502   1.403       .  A
C501        H504   1.083       .  S
C502       Br508   1.918       .  S
C509        C510   1.410       .  A
C509        C514   1.406       .  A
C510        C511   1.399       .  A
C510       Br526   1.918       .  S
C511        C512   1.403       .  A
C511        H515   1.084       .  S
C512        C516   1.479       .  S
C512        C513   1.407       .  A
C513        C514   1.398       .  A
C513       Br525   1.920       .  S
C514        H517   1.084       .  S
C516        C518   1.403       .  A
C516        C522   1.408       .  A
C518        C519   1.401       .  A
C518        H523   1.083       .  S
C519        C520   1.410       .  A
C519       Br527   1.919       .  S
C520        C521   1.403       .  A
C521        C522   1.396       .  A
C521        H524   1.083       .  S
C522       Br528   1.921       .  S
C529        C530   1.416       .  A
C529        C534   1.405       .  A
C530        C531   1.399       .  A
C530       Br546   1.921       .  S
C531        C532   1.399       .  A
C531        H535   1.084       .  S
C532        C536   1.477       .  S
C532        C533   1.408       .  A
C533        C534   1.398       .  A
C533       Br545   1.920       .  S
C534        H537   1.083       .  S
C536        C538   1.398       .  A
C536        C542   1.409       .  A
C538        C539   1.393       .  A
C538        H543   1.084       .  S
C539        C540   1.414       .  A
C539       Br547   1.921       .  S
C540        C541   1.406       .  A
C541        C542   1.402       .  A
C541        H544   1.083       .  S
C542       Br548   1.918       .  S
C549        C550   1.416       .  A
C549        C554   1.404       .  A
C550        C551   1.395       .  A
C550       Br566   1.924       .  S
C551        C552   1.400       .  A
C551        H555   1.084       .  S
C552        C556   1.481       .  S
C552        C553   1.410       .  A
C553        C554   1.401       .  A
C553       Br565   1.919       .  S
C554        H557   1.083       .  S
C556        C558   1.400       .  A
C556        C562   1.411       .  A
C558        C559   1.396       .  A
C558        H563   1.084       .  S
C559        C560   1.413       .  A
C559       Br567   1.920       .  S
C560        C561   1.404       .  A
C561        C562   1.401       .  A
C561        H564   1.083       .  S
C562       Br568   1.919       .  S
C569        C570   1.414       .  A
C569        C574   1.403       .  A
C570        C571   1.397       .  A
C570       Br586   1.923       .  S
C571        C572   1.403       .  A
C571        H575   1.083       .  S
C572        C576   1.489   1_655  S
C572        C573   1.414       .  A
C573        C574   1.402       .  A
C573       Br585   1.920   1_655  S
C574        H577   1.083       .  S
C576        C578   1.402       .  A
C576        C582   1.414       .  A
C578        C579   1.395       .  A
C578        H583   1.083       .  S
C579        C580   1.412       .  A
C579       Br587   1.921       .  S
C580        C581   1.404       .  A
C581        C582   1.404       .  A
C581        H584   1.083       .  S
C582       Br588   1.920   1_455  S
C589        C590   1.418   1_554  A
C589       C2502   1.407       .  A
C590       C2499   1.400       .  A
C590       Br606   1.920       .  S
C591        C592   1.399       .  A
C591       C2498   1.400       .  A
C591        H595   1.084       .  S
C592        C596   1.474       .  S
C592        C593   1.406       .  A
C593        C594   1.397       .  A
C593       Br605   1.921       .  S
C594       C2497   1.407       .  A
C594       H2505   1.083       .  S
C596        C598   1.400       .  A
C596        C602   1.404       .  A
H597       C2502   1.083       .  S
C598        C599   1.399       .  A
C598        H603   1.084       .  S
C599        C600   1.418       .  A
C599       Br607   1.922       .  S
C600        C601   1.407       .  A
C601        C602   1.396       .  A
C601        H604   1.083       .  S
C602      Br2516   1.919       .  S
Br608      C2510   1.919       .  S
C609        C610   1.410       .  A
C609        C614   1.404       .  A
C610        C611   1.395       .  A
C610       Br626   1.922       .  S
C611        C612   1.400       .  A
C611        H615   1.084       .  S
C612        C616   1.470       .  S
C612        C613   1.406       .  A
C613        C614   1.400       .  A
C613       Br625   1.918       .  S
C614        H617   1.083       .  S
C616        C618   1.401       .  A
C616        C622   1.405       .  A
C618        C619   1.396       .  A
C618        H623   1.084       .  S
C619        C620   1.409       .  A
C619       Br627   1.920       .  S
C620        C621   1.405       .  A
C621        C622   1.397       .  A
C621        H624   1.084       .  S
C622       Br628   1.918       .  S
C629        C634   1.407       .  A
C629       C2538   1.419       .  A
C630        C631   1.397       .  A
C630       C2537   1.419       .  A
C630       Br646   1.922       .  S
C631        C632   1.396       .  A
C631        H635   1.084       .  S
C632        C636   1.475       .  S
C632       C2541   1.407       .  A
C633        C634   1.400       .  A
C633       C2540   1.407       .  A
C633       Br645   1.920   1_554  S
C634        H637   1.083       .  S
C636        C638   1.404       .  A
C636        C642   1.404       .  A
C638        C639   1.403       .  A
C638        H643   1.083       .  S
C639        C640   1.412       .  A
C639       Br647   1.919       .  S
C640        C641   1.405       .  A
C641        C642   1.392       .  A
C641        H644   1.084       .  S
C642       Br648   1.919       .  S
C649        C650   1.413       .  A
C649        C654   1.404       .  A
C650        C651   1.398       .  A
C650       Br666   1.922       .  S
C651        C652   1.399       .  A
C651        H655   1.084       .  S
C652        C656   1.478       .  S
C652        C653   1.408       .  A
C653        C654   1.403       .  A
C653       Br665   1.917       .  S
C654        H657   1.083       .  S
C656        C658   1.400       .  A
C656        C662   1.406       .  A
C658        C659   1.401       .  A
C658        H663   1.084       .  S
C659        C660   1.417       .  A
C659       Br667   1.921       .  S
C660        C661   1.406       .  A
C661        C662   1.399       .  A
C661        H664   1.083       .  S
C662       Br668   1.918       .  S
C669        C670   1.413       .  A
C669        C674   1.404       .  A
C670        C671   1.400       .  A
C670       Br686   1.920       .  S
C671        C672   1.400       .  A
C671        H675   1.083       .  S
C672        C676   1.470       .  S
C672        C673   1.405       .  A
C673        C674   1.395       .  A
C673       Br685   1.920       .  S
C674        H677   1.084       .  S
C676        C678   1.403       .  A
C676        C682   1.403       .  A
C678        C679   1.401       .  A
C678        H683   1.083       .  S
C679       C2588   1.411       .  A
C679       Br687   1.919       .  S
C680        C681   1.405   1_556  A
C680       C2587   1.411       .  A
C681       C2590   1.392   1_554  A
C681        H684   1.084       .  S
C682       C2589   1.392       .  A
C682      Br2596   1.919       .  S
Br688      C2590   1.919       .  S
C689        C690   1.417       .  A
C689        C694   1.406       .  A
C690        C691   1.401       .  A
C690       Br706   1.921       .  S
C691        C692   1.401       .  A
C691        H695   1.083       .  S
C692        C696   1.479       .  S
C692        C693   1.407       .  A
C693        C694   1.398       .  A
C693       Br705   1.919       .  S
C694        H697   1.083       .  S
C696        C698   1.402       .  A
C696        C702   1.407       .  A
C698        C699   1.402       .  A
C698        H703   1.083       .  S
C699        C700   1.415       .  A
C699       Br707   1.921       .  S
C700        C701   1.405       .  A
C701        C702   1.397       .  A
C701        H704   1.083       .  S
C702       Br708   1.919       .  S
C709        C710   1.415       .  A
C709        C714   1.407       .  A
C710        C711   1.401       .  A
C710       Br726   1.921       .  S
C711        C712   1.402       .  A
C711        H715   1.084       .  S
C712        C716   1.482       .  S
C712        C713   1.407       .  A
C713        C714   1.399       .  A
C713       Br725   1.919       .  S
C714        H717   1.083       .  S
C716        C718   1.402       .  A
C716        C722   1.406       .  A
C718        C719   1.402       .  A
C718        H723   1.084       .  S
C719        C720   1.415       .  A
C719       Br727   1.919       .  S
C720        C721   1.409       .  A
C721        C722   1.399       .  A
C721        H724   1.083       .  S
C722       Br728   1.920       .  S
C729        C730   1.416       .  A
C729       C2642   1.409       .  A
C730       C2639   1.401       .  A
C730       Br746   1.920       .  S
C731        C732   1.402       .  A
C731       C2638   1.401   1_554  A
C731       H2643   1.084       .  S
C732        C736   1.476       .  S
C732        C733   1.403       .  A
C733        C734   1.396       .  A
C733       Br745   1.919       .  S
C734       C2637   1.409   1_554  A
C734        H737   1.083       .  S
H735       C2639   1.084       .  S
C736        C738   1.402       .  A
C736        C742   1.405       .  A
C738        C739   1.397       .  A
C738        H743   1.084       .  S
C739        C740   1.412       .  A
C739       Br747   1.922       .  S
C740        C741   1.405       .  A
C741        C742   1.398       .  A
C741        H744   1.084       .  S
C742       Br748   1.917       .  S
C749        C750   1.416       .  A
C749        C754   1.405       .  A
C750        C751   1.400       .  A
C750       Br766   1.921       .  S
C751        C752   1.400       .  A
C751        H755   1.084       .  S
C752        C756   1.475       .  S
C752        C753   1.406       .  A
C753        C754   1.396       .  A
C753       Br765   1.919       .  S
C754        H757   1.083       .  S
C756        C758   1.399       .  A
C756        C762   1.407       .  A
C758       C2667   1.397   1_554  A
C758        H763   1.084   1_554  S
C759       C2666   1.397       .  A
C759       C2668   1.414       .  A
C759       Br767   1.923       .  S
C760       C2261   1.475       .  S
C760        C761   1.404   1_556  A
C760       C2667   1.414       .  A
C761        C762   1.401       .  A
C761        H764   1.083       .  S
C762       Br768   1.918       .  S
C769        C770   1.415       .  A
C769        C774   1.407       .  A
C770        C771   1.399       .  A
C770       Br786   1.921       .  S
C771        C772   1.399       .  A
C771        H775   1.084       .  S
C772        C776   1.471       .  S
C772        C773   1.403       .  A
C773        C774   1.397       .  A
C773       Br785   1.919       .  S
C774        H777   1.083       .  S
C776        C778   1.399       .  A
C776        C782   1.407       .  A
C778        C779   1.397       .  A
C778        H783   1.084       .  S
C779        C780   1.414       .  A
C779       Br787   1.923       .  S
C780        C781   1.402       .  A
C781        C782   1.397       .  A
C781        H784   1.083       .  S
C782       Br788   1.918       .  S
C789        C790   1.416       .  A
C789        C794   1.408       .  A
C790        C791   1.403       .  A
C790       Br806   1.919       .  S
C791        C792   1.403       .  A
C791        H795   1.084       .  S
C792        C796   1.483       .  S
C792        C793   1.406       .  A
C793        C794   1.400       .  A
C793      Br2713   1.918       .  S
C794        H797   1.083       .  S
C796        C798   1.403       .  A
C796        C802   1.407       .  A
C798        C799   1.402       .  A
C798        H803   1.084       .  S
C799        C800   1.413       .  A
C799      Br2715   1.921       .  S
C800        C801   1.405       .  A
C801        C802   1.400       .  A
C801        H804   1.083       .  S
C802       Br808   1.917       .  S
Br805      C2701   1.918   1_554  S
Br807      C2707   1.921       .  S
C809        C810   1.413       .  A
C809        C814   1.403       .  A
C810        C811   1.401       .  A
C810       Br826   1.923       .  S
C811        C812   1.402       .  A
C811        H815   1.084       .  S
C812        C816   1.483       .  S
C812        C813   1.409       .  A
C813        C814   1.403       .  A
C813       Br825   1.918   1_554  S
C814        H817   1.083       .  S
C816        C818   1.401       .  A
C816        C822   1.406       .  A
C818        C819   1.404   1_554  A
C818        H823   1.084       .  S
C819       C2728   1.421       .  A
C819       Br827   1.922       .  S
C820        C821   1.407       .  A
C820       C2727   1.421       .  A
C821       C2730   1.399       .  A
C821        H824   1.083       .  S
C822       C2729   1.399   1_554  A
C822      Br2736   1.919       .  S
Br828      C2730   1.919       .  S
C829        C830   1.414       .  A
C829        C834   1.407       .  A
C830        C831   1.396       .  A
C830       Br846   1.922       .  S
C831        C832   1.400       .  A
C831        H835   1.084       .  S
C832        C836   1.472       .  S
C832        C833   1.404       .  A
C833        C834   1.398       .  A
C833       Br845   1.917       .  S
C834        H837   1.083       .  S
C836        C838   1.399       .  A
C836        C842   1.409       .  A
C838        C839   1.396       .  A
C838        H843   1.084       .  S
C839        C840   1.410       .  A
C839       Br847   1.920       .  S
C840        C841   1.402       .  A
C841        C842   1.400       .  A
C841        H844   1.084       .  S
C842       Br848   1.919       .  S
C849        C850   1.417       .  A
C849        C854   1.408       .  A
C850        C851   1.400       .  A
C850       Br866   1.921       .  S
C851        C852   1.400       .  A
C851        H855   1.084       .  S
C852        C856   1.484       .  S
C852        C853   1.409       .  A
C853        C854   1.404       .  A
C853       Br865   1.919       .  S
C854        H857   1.083       .  S
C856        C858   1.402       .  A
C856        C862   1.407       .  A
C858        C859   1.400       .  A
C858        H863   1.084       .  S
C859        C860   1.416       .  A
C859       Br867   1.921       .  S
C860        C861   1.409       .  A
C861        C862   1.403       .  A
C861        H864   1.083       .  S
C862       Br868   1.918       .  S
C869        C870   1.416       .  A
C869        C874   1.406       .  A
C870        C871   1.400       .  A
C870       Br886   1.921       .  S
C871        C872   1.401       .  A
C871        H875   1.084       .  S
C872        C876   1.479   1_565  S
C872        C873   1.406       .  A
C873        C874   1.400       .  A
C873       Br885   1.919   1_565  S
C874        H877   1.083       .  S
C876        C878   1.401       .  A
C876        C882   1.404       .  A
C878        C879   1.401       .  A
C878        H883   1.084       .  S
C879        C880   1.417       .  A
C879       Br887   1.921       .  S
C880        C881   1.408       .  A
C881        C882   1.398       .  A
C881        H884   1.083       .  S
C882       Br888   1.919       .  S
C889        C890   1.410       .  A
C889        C894   1.403       .  A
C890        C891   1.404       .  A
C890       Br906   1.919       .  S
C891        C892   1.404       .  A
C891        H895   1.083       .  S
C892        C896   1.483       .  S
C892        C893   1.410       .  A
C893        C894   1.398       .  A
C893       Br905   1.921       .  S
C894        H897   1.084       .  S
C896        C898   1.404       .  A
C896        C902   1.407       .  A
C898        C899   1.404       .  A
C898        H903   1.083       .  S
C899        C900   1.414       .  A
C899       Br907   1.920       .  S
C900        C901   1.407       .  A
C901        C902   1.398       .  A
C901        H904   1.083       .  S
C902       Br908   1.920       .  S
C909        C910   1.410       .  A
C909       C2822   1.402       .  A
C910       C2819   1.401       .  A
C910       Br926   1.918       .  S
C911        C912   1.402       .  A
C911       C2818   1.401       .  A
C911        H915   1.083       .  S
C912        C916   1.473       .  S
C912        C913   1.406       .  A
C913        C914   1.395       .  A
C913       Br925   1.920       .  S
C914       C2817   1.402       .  A
C914        H917   1.084       .  S
C916        C918   1.398       .  A
C916        C922   1.406       .  A
C918        C919   1.400       .  A
C918        H923   1.084       .  S
C919        C920   1.418       .  A
C919       Br927   1.920       .  S
C920        C921   1.404       .  A
C921        C922   1.396       .  A
C921        H924   1.083       .  S
C922       Br928   1.919       .  S
C929        C930   1.410       .  A
C929        C934   1.406       .  A
C930        C931   1.398       .  A
C930       Br946   1.919       .  S
C931        C932   1.403       .  A
C931        H935   1.084       .  S
C932        C936   1.478       .  S
C932        C933   1.406       .  A
C933        C934   1.399       .  A
C933       Br945   1.919       .  S
C934        H937   1.084       .  S
C936        C938   1.406       .  A
C936        C942   1.407       .  A
C938        C939   1.403       .  A
C938        H943   1.083       .  S
C939        C940   1.408       .  A
C939       Br947   1.917       .  S
C940        C941   1.402       .  A
C941        C942   1.393       .  A
C941        H944   1.084       .  S
C942       Br948   1.920       .  S
C949        C950   1.420       .  A
C949        C954   1.407       .  A
C950        C951   1.401       .  A
C950       Br966   1.923       .  S
C951        C952   1.399       .  A
C951        H955   1.084       .  S
C952        C956   1.482       .  S
C952        C953   1.406       .  A
C953        C954   1.402       .  A
C953       Br965   1.917       .  S
C954        H957   1.083       .  S
C956        C958   1.399       .  A
C956        C962   1.406       .  A
C958        C959   1.401       .  A
C958        H963   1.084       .  S
C959        C960   1.421       .  A
C959       Br967   1.922       .  S
C960        C961   1.408       .  A
C961        C962   1.403       .  A
C961        H964   1.083       .  S
C962       Br968   1.917       .  S
C969        C970   1.416       .  A
C969       C2882   1.409       .  A
C970       C2879   1.402       .  A
C970       Br986   1.921       .  S
C971        C972   1.402       .  A
C971       C2878   1.402   1_554  A
C971        H975   1.084       .  S
C972        C976   1.481       .  S
C972        C973   1.404       .  A
C973        C974   1.398   1_554  A
C973       Br985   1.918       .  S
C974       C2877   1.409       .  A
C974       H2885   1.083       .  S
C976        C978   1.404       .  A
C976        C982   1.405       .  A
H977       C2882   1.083       .  S
C978        C979   1.404       .  A
C978        H983   1.083       .  S
C979        C980   1.413       .  A
C979       Br987   1.919       .  S
C980        C981   1.407       .  A
C981        C982   1.397       .  A
C981        H984   1.083       .  S
C982       Br988   1.919       .  S
C989        C990   1.409       .  A
C989        C994   1.405       .  A
C990        C991   1.400       .  A
C990      Br1006   1.918       .  S
C991        C992   1.403       .  A
C991        H995   1.083       .  S
C992        C996   1.474       .  S
C992        C993   1.405       .  A
C993        C994   1.396       .  A
C993      Br1005   1.919       .  S
C994        H997   1.084       .  S
C996        C998   1.399       .  A
C996       C1002   1.407       .  A
C998        C999   1.400       .  A
C998       H1003   1.084       .  S
C999       C1000   1.417       .  A
C999      Br1007   1.921       .  S
C1000      C1001   1.405       .  A
C1001      C1002   1.396       .  A
C1001      H1004   1.083       .  S
C1002     Br1008   1.920       .  S
C1009      C1010   1.417       .  A
C1009      C2922   1.409       .  A
C1010      C2919   1.400       .  A
C1010     Br1026   1.921       .  S
C1011      C1012   1.401       .  A
C1011      C2918   1.400   1_554  A
C1011      H1015   1.084       .  S
C1012      C1016   1.480       .  S
C1012      C1013   1.405       .  A
C1013      C1014   1.400       .  A
C1013     Br1025   1.918       .  S
C1014      C2917   1.409   1_554  A
C1014      H1017   1.083       .  S
C1016      C1018   1.400       .  A
C1016      C1022   1.406       .  A
C1018      C1019   1.398       .  A
C1018      H1023   1.084       .  S
C1019      C1020   1.416       .  A
C1019     Br1027   1.921       .  S
C1020      C1021   1.408       .  A
C1021      C1022   1.401       .  A
C1021      H1024   1.083       .  S
C1022     Br1028   1.918       .  S
C1029      C1030   1.407       .  A
C1029      C1034   1.401       .  A
C1030      C1031   1.405       .  A
C1030     Br1046   1.918       .  S
C1031      C1032   1.409       .  A
C1031      H1035   1.083       .  S
C1032      C1036   1.490       .  S
C1032      C1033   1.412       .  A
C1033      C1034   1.396       .  A
C1033     Br1045   1.921       .  S
C1034      H1037   1.084       .  S
C1036      C1038   1.406       .  A
C1036      C1042   1.409       .  A
C1038      C1039   1.403       .  A
C1038      H1043   1.084       .  S
C1039      C1040   1.413       .  A
C1039     Br1047   1.919       .  S
C1040      C1041   1.408       .  A
C1041      C1042   1.401       .  A
C1041      H1044   1.083       .  S
C1042     Br1048   1.920       .  S
C1049      C1050   1.418       .  A
C1049      C1054   1.408       .  A
C1050      C1051   1.403       .  A
C1050     Br2974   1.921   1_554  S
C1051      C1052   1.402       .  A
C1051      H1055   1.084       .  S
C1052      C1056   1.482       .  S
C1052      C1053   1.406       .  A
C1053      C1054   1.399       .  A
C1053     Br1065   1.919       .  S
C1054      H1057   1.083       .  S
C1056      C1058   1.401       .  A
C1056      C1062   1.406       .  A
C1058      C1059   1.402       .  A
C1058      H1063   1.084       .  S
C1059      C1060   1.417       .  A
C1059     Br1067   1.921       .  S
C1060      C1061   1.408       .  A
C1061      C1062   1.400       .  A
C1061      H1064   1.083       .  S
C1062     Br1068   1.919       .  S
Br1066     C2958   1.921       .  S
C1069      C1070   1.417       .  A
C1069      C1074   1.409       .  A
C1070      C1071   1.400       .  A
C1070     Br1086   1.921       .  S
C1071      C1072   1.401       .  A
C1071      H1075   1.084       .  S
C1072      C1076   1.472       .  S
C1072      C1073   1.402       .  A
C1073      C1074   1.396       .  A
C1073     Br1085   1.919       .  S
C1074      H1077   1.083       .  S
C1076      C1078   1.403       .  A
C1076      C1082   1.406       .  A
C1078      C1079   1.400       .  A
C1078      H1083   1.083       .  S
C1079      C1080   1.409       .  A
C1079     Br1087   1.920       .  S
C1080      C1081   1.402       .  A
C1081      C1082   1.394       .  A
C1081      H1084   1.084       .  S
C1082     Br1088   1.919       .  S
C1089      C1090   1.414       .  A
C1089      C1094   1.404       .  A
C1090      C1091   1.396       .  A
C1090     Br1106   1.923       .  S
C1091      C1092   1.399       .  A
C1091      H1095   1.084       .  S
C1092      C1096   1.476       .  S
C1092      C1093   1.408       .  A
C1093      C1094   1.402       .  A
C1093     Br1105   1.918       .  S
C1094      H1097   1.083       .  S
C1096      C1098   1.401       .  A
C1096      C1102   1.405       .  A
C1098      C1099   1.398       .  A
C1098      H1103   1.084       .  S
C1099      C1100   1.413       .  A
C1099     Br1107   1.921       .  S
C1100      C1101   1.407       .  A
C1101      C1102   1.399       .  A
C1101      H1104   1.083       .  S
C1102     Br1108   1.917       .  S
C1109      C1110   1.413       .  A
C1109      C1114   1.408       .  A
C1110      C1111   1.402       .  A
C1110     Br1126   1.919       .  S
C1111      C1112   1.403       .  A
C1111      H1115   1.084       .  S
C1112      C1116   1.481       .  S
C1112      C1113   1.405       .  A
C1113      C1114   1.399       .  A
C1113     Br1125   1.918       .  S
C1114      H1117   1.083       .  S
C1116      C1118   1.401       .  A
C1116      C1122   1.404       .  A
C1118      C1119   1.403       .  A
C1118      H1123   1.084       .  S
C1119      C1120   1.418       .  A
C1119     Br1127   1.921       .  S
C1120      C1121   1.409       .  A
C1121      C1122   1.400       .  A
C1121      H1124   1.083       .  S
C1122     Br1128   1.918       .  S
C1129      C1130   1.414       .  A
C1129      C1134   1.404       .  A
C1130      C1131   1.399       .  A
C1130     Br1146   1.922       .  S
C1131      C1132   1.400       .  A
C1131      H1135   1.084       .  S
C1132      C1136   1.479       .  S
C1132      C1133   1.409       .  A
C1133      C1134   1.400       .  A
C1133     Br1145   1.918       .  S
C1134      H1137   1.083       .  S
C1136      C1138   1.401       .  A
C1136      C1142   1.409       .  A
C1138      C1139   1.399       .  A
C1138      H1143   1.084       .  S
C1139      C1140   1.412       .  A
C1139     Br1147   1.921       .  S
C1140      C1141   1.404       .  A
C1141      C1142   1.401       .  A
C1141      H1144   1.083       .  S
C1142     Br1148   1.919       .  S
C1149      C1150   1.408       .  A
C1149      C1154   1.403       .  A
C1150      C1151   1.395       .  A
C1150     Br1166   1.918       .  S
C1151      C1152   1.402       .  A
C1151      H1155   1.084       .  S
C1152      C1156   1.484       .  S
C1152      C1153   1.412       .  A
C1153      C1154   1.403       .  A
C1153     Br1165   1.918       .  S
C1154      H1157   1.083       .  S
C1156      C1158   1.400       .  A
C1156      C1162   1.410       .  A
C1158      C1159   1.398       .  A
C1158      H1163   1.084       .  S
C1159      C1160   1.419       .  A
C1159     Br1167   1.922       .  S
C1160      C1161   1.406       .  A
C1161      C1162   1.400       .  A
C1161      H1164   1.083       .  S
C1162     Br1168   1.920       .  S
C1169      C1170   1.417       .  A
C1169      C1174   1.407       .  A
C1170      C1171   1.401       .  A
C1170     Br1186   1.920       .  S
C1171      C1172   1.400       .  A
C1171      H1175   1.084       .  S
C1172      C1176   1.480       .  S
C1172      C1173   1.407       .  A
C1173      C1174   1.400       .  A
C1173     Br1185   1.919       .  S
C1174      H1177   1.083       .  S
C1176      C1178   1.400       .  A
C1176      C1182   1.407       .  A
C1178      C1179   1.399       .  A
C1178      H1183   1.084       .  S
C1179      C1180   1.418       .  A
C1179     Br1187   1.922       .  S
C1180      C1181   1.407       .  A
C1181      C1182   1.401       .  A
C1181      H1184   1.083       .  S
C1182     Br1188   1.918       .  S
C1189      C1190   1.415       .  A
C1189      C1194   1.409       .  A
C1190      C1191   1.401       .  A
C1190     Br1206   1.919       .  S
C1191      C1192   1.401       .  A
C1191      H1195   1.084       .  S
C1192      C1196   1.477       .  S
C1192      C1193   1.405       .  A
C1193      C1194   1.397       .  A
C1193     Br1205   1.920       .  S
C1194      H1197   1.083       .  S
C1196      C1198   1.401       .  A
C1196      C1202   1.405       .  A
C1198      C1199   1.401   1_554  A
C1198      H3111   1.084       .  S
C1199      C1200   1.416   1_556  A
C1199     Br3115   1.921       .  S
C1200      C1201   1.408       .  A
C1201      C1202   1.396       .  A
C1201      H1204   1.083       .  S
C1202     Br1208   1.920       .  S
H1203      C3106   1.084       .  S
Br1207     C3107   1.921       .  S
C1209      C1210   1.419       .  A
C1209      C1214   1.407       .  A
C1210      C1211   1.401       .  A
C1210     Br1226   1.921       .  S
C1211      C1212   1.400       .  A
C1211      H1215   1.084       .  S
C1212      C1216   1.480   1_455  S
C1212      C1213   1.406       .  A
C1213      C1214   1.399       .  A
C1213     Br1225   1.919   1_455  S
C1214      H1217   1.083       .  S
C1216      C1218   1.399       .  A
C1216      C1222   1.407       .  A
C1218      C1219   1.399       .  A
C1218      H1223   1.084       .  S
C1219      C1220   1.419       .  A
C1219     Br1227   1.922       .  S
C1220      C1221   1.408       .  A
C1221      C1222   1.402       .  A
C1221      H1224   1.083       .  S
C1222     Br1228   1.919   1_655  S
C1229      C1230   1.416       .  A
C1229      C1234   1.408       .  A
C1230      C1231   1.400       .  A
C1230     Br1246   1.921       .  S
C1231      C1232   1.402       .  A
C1231      H1235   1.084       .  S
C1232      C1236   1.481       .  S
C1232      C1233   1.407       .  A
C1233      C1234   1.398       .  A
C1233     Br1245   1.919       .  S
C1234      H1237   1.083       .  S
C1236      C1238   1.401       .  A
C1236      C1242   1.408       .  A
C1238      C1239   1.397       .  A
C1238      H1243   1.084       .  S
C1239      C1240   1.413       .  A
C1239     Br1247   1.921       .  S
C1240      C1241   1.407       .  A
C1241      C1242   1.403       .  A
C1241      H1244   1.083       .  S
C1242     Br1248   1.919       .  S
C1249      C1250   1.415       .  A
C1249      C1254   1.408       .  A
C1250      C1251   1.403       .  A
C1250     Br1266   1.919       .  S
C1251      C1252   1.402       .  A
C1251      H1255   1.083       .  S
C1252      C1256   1.481       .  S
C1252      C1253   1.405       .  A
C1253      C1254   1.400       .  A
C1253     Br1265   1.919       .  S
C1254      H1257   1.083       .  S
C1256      C1258   1.400       .  A
C1256      C1262   1.406       .  A
C1258      C1259   1.403       .  A
C1258      H1263   1.084       .  S
C1259      C1260   1.418       .  A
C1259     Br1267   1.922       .  S
C1260      C1261   1.407       .  A
C1261      C1262   1.400       .  A
C1261      H1264   1.083       .  S
C1262     Br1268   1.919       .  S
C1269      C1270   1.420       .  A
C1269      C1274   1.407       .  A
C1270      C1271   1.402       .  A
C1270     Br1286   1.921       .  S
C1271      C1272   1.400       .  A
C1271      H1275   1.084       .  S
C1272      C1276   1.482       .  S
C1272      C1273   1.407       .  A
C1273      C1274   1.399       .  A
C1273     Br1285   1.920       .  S
C1274      H1277   1.083       .  S
C1276      C1278   1.400       .  A
C1276      C1282   1.410       .  A
C1278      C1279   1.397       .  A
C1278      H1283   1.084       .  S
C1279      C1280   1.414       .  A
C1279     Br1287   1.921       .  S
C1280      C1281   1.403       .  A
C1281      C1282   1.403       .  A
C1281      H1284   1.083       .  S
C1282     Br1288   1.917       .  S
C1289      C1290   1.410       .  A
C1289      C1294   1.404       .  A
C1290      C1291   1.404       .  A
C1290     Br1306   1.917       .  S
C1291      C1292   1.405       .  A
C1291      H1295   1.083       .  S
C1292      C1296   1.478       .  S
C1292      C1293   1.406       .  A
C1293      C1294   1.393       .  A
C1293     Br3213   1.920       .  S
C1294      H1297   1.084       .  S
C1296      C1298   1.404       .  A
C1296      C3210   1.405       .  A
C1298      C3207   1.400       .  A
C1298      H1303   1.084       .  S
C1299      C1300   1.409       .  A
C1299      C3206   1.400   1_554  A
C1299     Br1307   1.919   1_554  S
C1300      C1301   1.406       .  A
C1301      C1302   1.398       .  A
C1301      H1304   1.083       .  S
C1302      C3204   1.405   1_554  A
C1302     Br1308   1.918       .  S
Br1305     C3201   1.920       .  S
C1309      C1310   1.418       .  A
C1309      C1314   1.408       .  A
C1310      C1311   1.397       .  A
C1310     Br1326   1.921       .  S
C1311      C1312   1.398       .  A
C1311      H1315   1.084       .  S
C1312      C1316   1.478       .  S
C1312      C1313   1.408       .  A
C1313      C1314   1.400       .  A
C1313     Br1325   1.920       .  S
C1314      H1317   1.083       .  S
C1316      C1318   1.404       .  A
C1316      C1322   1.406       .  A
C1318      C1319   1.401       .  A
C1318      H1323   1.084       .  S
C1319      C3228   1.410       .  A
C1319     Br1327   1.919       .  S
C1320      C1321   1.404   1_556  A
C1320      C3227   1.410       .  A
C1321      C3230   1.395   1_554  A
C1321      H1324   1.084       .  S
C1322      C3229   1.395       .  A
C1322     Br1328   1.919       .  S
C1329      C1330   1.412       .  A
C1329      C1334   1.403       .  A
C1330      C1331   1.396       .  A
C1330     Br1346   1.923       .  S
C1331      C1332   1.399       .  A
C1331      H1335   1.084       .  S
C1332      C1336   1.475       .  S
C1332      C1333   1.408       .  A
C1333      C1334   1.402       .  A
C1333     Br1345   1.917       .  S
C1334      H1337   1.083       .  S
C1336      C1338   1.399       .  A
C1336      C1342   1.406       .  A
C1338      C1339   1.401       .  A
C1338      H1343   1.084       .  S
C1339      C1340   1.417       .  A
C1339     Br1347   1.921       .  S
C1340      C1341   1.406       .  A
C1341      C1342   1.398       .  A
C1341      H1344   1.083       .  S
C1342     Br1348   1.920       .  S
C1349      C1350   1.407       .  A
C1349      C1354   1.403       .  A
C1350      C1351   1.402       .  A
C1350     Br1366   1.918       .  S
C1351      C1352   1.407       .  A
C1351      H1355   1.083       .  S
C1352      C1356   1.489       .  S
C1352      C1353   1.412       .  A
C1353      C1354   1.399       .  A
C1353     Br3273   1.921       .  S
C1354      H1357   1.084       .  S
C1356      C1362   1.411       .  A
C1356      C3266   1.408       .  A
C1358      C1359   1.404       .  A
C1358      C3264   1.408   1_554  A
C1358      H1363   1.083       .  S
C1359      C1360   1.410       .  A
C1359     Br1367   1.919       .  S
C1360      C3269   1.404   1_554  A
C1361      C1362   1.397       .  A
C1361      C3268   1.404       .  A
C1361      H1364   1.084       .  S
C1362     Br1368   1.922       .  S
Br1365     C3261   1.921   1_554  S
C1369      C1370   1.416       .  A
C1369      C1374   1.408       .  A
C1370      C1371   1.399       .  A
C1370     Br1386   1.921       .  S
C1371      C1372   1.402       .  A
C1371      H1375   1.084   1_545  S
C1372      C1376   1.483   1_545  S
C1372      C1373   1.407       .  A
C1373      C1374   1.399       .  A
C1373     Br1385   1.919       .  S
C1374      H1377   1.083       .  S
C1376      C1378   1.403       .  A
C1376      C1382   1.408       .  A
C1378      C1379   1.399       .  A
C1378      H1383   1.084   1_565  S
C1379      C1380   1.415       .  A
C1379     Br1387   1.922       .  S
C1380      C1381   1.407       .  A
C1381      C1382   1.400       .  A
C1381      H1384   1.083       .  S
C1382     Br1388   1.919       .  S
C1389      C1390   1.416       .  A
C1389      C1394   1.408       .  A
C1390      C1391   1.401       .  A
C1390     Br1406   1.920       .  S
C1391      C1392   1.401       .  A
C1391      H1395   1.084       .  S
C1392      C1396   1.474       .  S
C1392      C1393   1.403       .  A
C1393      C1394   1.396       .  A
C1393     Br1405   1.919       .  S
C1394      H1397   1.083       .  S
C1396      C1398   1.398       .  A
C1396      C1402   1.405       .  A
C1398      C1399   1.397       .  A
C1398      H1403   1.084       .  S
C1399      C1400   1.418       .  A
C1399     Br1407   1.923       .  S
C1400      C1401   1.407       .  A
C1401      C1402   1.400       .  A
C1401      H1404   1.083       .  S
C1402     Br1408   1.918       .  S
C1409      C1410   1.408       .  A
C1409      C1414   1.403       .  A
C1410      C1411   1.400       .  A
C1410     Br1426   1.919       .  S
C1411      C1412   1.405       .  A
C1411      H1415   1.084       .  S
C1412      C1416   1.475       .  S
C1412      C1413   1.405       .  A
C1413      C1414   1.394       .  A
C1413     Br1425   1.919       .  S
C1414      H1417   1.084       .  S
C1416      C1418   1.402       .  A
C1416      C1422   1.402       .  A
C1418      C1419   1.399       .  A
C1418      H1423   1.084       .  S
C1419      C1420   1.416       .  A
C1419     Br1427   1.921       .  S
C1420      C1421   1.409       .  A
C1421      C1422   1.396       .  A
C1421      H1424   1.083       .  S
C1422     Br1428   1.919       .  S
C1429      C1430   1.410       .  A
C1429      C1434   1.402       .  A
C1430      C1431   1.398       .  A
C1430     Br1446   1.922       .  S
C1431      C1432   1.403       .  A
C1431      H1435   1.084       .  S
C1432      C1436   1.480       .  S
C1432      C1433   1.409       .  A
C1433      C1434   1.400       .  A
C1433     Br1445   1.918       .  S
C1434      H1437   1.083       .  S
C1436      C1438   1.400       .  A
C1436      C1442   1.409       .  A
C1438      C1439   1.398       .  A
C1438      H1443   1.084       .  S
C1439      C1440   1.415       .  A
C1439     Br1447   1.922       .  S
C1440      C1441   1.404       .  A
C1441      C1442   1.399       .  A
C1441      H1444   1.083       .  S
C1442     Br1448   1.919       .  S
C1449      C2017   1.490       .  S
C1449      C1450   1.416       .  A
C1449      C1454   1.408       .  A
C1450      C1451   1.402       .  A
C1450     Br3374   1.920       .  S
C1451      C1452   1.403       .  A
C1451      H1455   1.084       .  S
C1452      C1456   1.486       .  S
C1452      C1453   1.408       .  A
C1453      C1454   1.399       .  A
C1453     Br1465   1.920       .  S
C1454      H1457   1.083       .  S
C1456      C1458   1.403       .  A
C1456      C1462   1.409       .  A
C1458      C1459   1.401       .  A
C1458      H1463   1.084       .  S
C1459      C1460   1.415       .  A
C1459     Br1467   1.921       .  S
C1460      C1461   1.406       .  A
C1461      C1462   1.401       .  A
C1461      H1464   1.083       .  S
C1462     Br1468   1.919       .  S
Br1466     C3358   1.920       .  S
C1469      C1470   1.414       .  A
C1469      C1474   1.405       .  A
C1470      C1471   1.401       .  A
C1470     Br1486   1.920       .  S
C1471      C1472   1.400       .  A
C1471      H1475   1.083       .  S
C1472      C1476   1.478       .  S
C1472      C1473   1.407       .  A
C1473      C1474   1.400       .  A
C1473     Br1485   1.919       .  S
C1474      H1477   1.083       .  S
C1476      C1478   1.398       .  A
C1476      C1482   1.408       .  A
C1478      C1479   1.397       .  A
C1478      H1483   1.084       .  S
C1479      C1480   1.417       .  A
C1479     Br1487   1.923       .  S
C1480      C1481   1.405       .  A
C1481      C1482   1.403       .  A
C1481      H1484   1.083       .  S
C1482     Br1488   1.917       .  S
C1489      C1490   1.416       .  A
C1489      C1494   1.403       .  A
C1490      C1491   1.399       .  A
C1490     Br1506   1.922       .  S
C1491      C1492   1.400       .  A
C1491      H1495   1.084       .  S
C1492      C1496   1.477       .  S
C1492      C1493   1.408       .  A
C1493      C1494   1.397       .  A
C1493     Br1505   1.919       .  S
C1494      H1497   1.083       .  S
C1496      C1498   1.401       .  A
C1496      C1502   1.409       .  A
C1498      C1499   1.395       .  A
C1498      H1503   1.084       .  S
C1499      C1500   1.410       .  A
C1499     Br1507   1.922       .  S
C1500      C1501   1.404       .  A
C1501      C1502   1.403       .  A
C1501      H1504   1.083       .  S
C1502     Br1508   1.918       .  S
C1509      C1510   1.415       .  A
C1509      C1514   1.406       .  A
C1510      C1511   1.401       .  A
C1510     Br1526   1.921       .  S
C1511      C1512   1.401       .  A
C1511      H1515   1.084       .  S
C1512      C1516   1.478   1_545  S
C1512      C1513   1.408   1_545  A
C1513      C1514   1.397   1_565  A
C1513     Br1525   1.920       .  S
C1514      H1517   1.083       .  S
C1516      C1518   1.400       .  A
C1516      C1522   1.405       .  A
C1518      C1519   1.398       .  A
C1518      H1523   1.084   1_565  S
C1519      C1520   1.416       .  A
C1519     Br1527   1.921       .  S
C1520      C1521   1.410       .  A
C1521      C1522   1.402       .  A
C1521      H1524   1.083       .  S
C1522     Br1528   1.918       .  S
C1529      C1530   1.417       .  A
C1529      C1534   1.409       .  A
C1530      C1531   1.403       .  A
C1530     Br1546   1.921       .  S
C1531      C1532   1.404       .  A
C1531      H1535   1.084       .  S
C1532      C1536   1.491       .  S
C1532      C1533   1.410       .  A
C1533      C1534   1.402       .  A
C1533     Br1545   1.921       .  S
C1534      H1537   1.083       .  S
C1536      C1538   1.404       .  A
C1536      C1542   1.413       .  A
C1538      C1539   1.401       .  A
C1538      H1543   1.084       .  S
C1539      C1540   1.412       .  A
C1539     Br1547   1.921       .  S
C1540      C1541   1.404       .  A
C1541      C1542   1.403       .  A
C1541      H1544   1.083       .  S
C1542     Br1548   1.919       .  S
C1549      C1550   1.420       .  A
C1549      C1554   1.408       .  A
C1550      C1551   1.402       .  A
C1550     Br1566   1.922       .  S
C1551      C1552   1.399       .  A
C1551      H1555   1.084       .  S
C1552      C1556   1.480   1_655  S
C1552      C1553   1.405       .  A
C1553      C1554   1.401       .  A
C1553     Br1565   1.917   1_655  S
C1554      H1557   1.083       .  S
C1556      C1558   1.402       .  A
C1556      C1562   1.404       .  A
C1558      C1559   1.404       .  A
C1558      H1563   1.084       .  S
C1559      C1560   1.418       .  A
C1559     Br1567   1.921       .  S
C1560      C1561   1.408       .  A
C1561      C1562   1.397       .  A
C1561      H1564   1.083       .  S
C1562     Br1568   1.918       .  S
C1569      C1570   1.413       .  A
C1569      C3482   1.403       .  A
C1570      C1571   1.401   1_554  A
C1570     Br1586   1.920       .  S
C1571      C3480   1.401       .  A
C1571      H1575   1.083       .  S
C1572      C1576   1.478       .  S
C1572      C1573   1.409       .  A
C1572      C3479   1.401       .  A
C1573      C1574   1.397       .  A
C1573     Br1585   1.919       .  S
C1574      C3477   1.403       .  A
C1574      H1577   1.084       .  S
C1576      C1578   1.401       .  A
C1576      C1582   1.404       .  A
C1578      C1579   1.401       .  A
C1578      H1583   1.084       .  S
C1579      C1580   1.416       .  A
C1579     Br1587   1.920       .  S
C1580      C1581   1.410       .  A
C1581      C1582   1.398       .  A
C1581      H1584   1.083       .  S
C1582     Br1588   1.919       .  S
C1589      C1590   1.409       .  A
C1589      C1594   1.404       .  A
C1590      C1591   1.399       .  A
C1590     Br1606   1.920       .  S
C1591      C1592   1.402       .  A
C1591      H1595   1.084       .  S
C1592      C1596   1.473       .  S
C1592      C1593   1.405       .  A
C1593      C1594   1.398       .  A
C1593     Br1605   1.919       .  S
C1594      H1597   1.084       .  S
C1596      C1598   1.401       .  A
C1596      C1602   1.402       .  A
C1598      C1599   1.399       .  A
C1598      H1603   1.084       .  S
C1599      C1600   1.416       .  A
C1599     Br1607   1.921       .  S
C1600      C1601   1.409       .  A
C1601      C1602   1.397       .  A
C1601      H1604   1.083       .  S
C1602     Br1608   1.918       .  S
C1609      C1610   1.412       .  A
C1609      C3522   1.403   1_554  A
C1610      C3519   1.398   1_554  A
C1610     Br1626   1.922       .  S
C1611      C1612   1.400       .  A
C1611      C3518   1.398       .  A
C1611      H3523   1.084       .  S
C1612      C1616   1.477       .  S
C1612      C1613   1.409       .  A
C1613      C1614   1.403       .  A
C1613     Br1625   1.919       .  S
C1614      C3517   1.403       .  A
C1614      H1617   1.083       .  S
H1615      C3519   1.084   1_554  S
C1616      C1618   1.402       .  A
C1616      C1622   1.403       .  A
C1618      C1619   1.403       .  A
C1618      H1623   1.084       .  S
C1619      C1620   1.418       .  A
C1619     Br1627   1.922       .  S
C1620      C1621   1.408       .  A
C1621      C1622   1.395       .  A
C1621      H1624   1.083       .  S
C1622     Br1628   1.918       .  S
C1629      C1630   1.415       .  A
C1629      C1634   1.408       .  A
C1630      C1631   1.402       .  A
C1630     Br1646   1.919       .  S
C1631      C1632   1.402       .  A
C1631      H1635   1.084       .  S
C1632      C1636   1.479       .  S
C1632      C1633   1.405       .  A
C1633      C1634   1.398       .  A
C1633     Br3553   1.920       .  S
C1634      H1637   1.083       .  S
C1636      C1638   1.403       .  A
C1636      C1642   1.405       .  A
C1638      C3547   1.401   1_554  A
C1638      H3551   1.084       .  S
C1639      C3546   1.401       .  A
C1639      C3548   1.415       .  A
C1639     Br1647   1.920       .  S
C1640      C1641   1.408       .  A
C1640      C3547   1.415   1_554  A
C1641      C1642   1.397       .  A
C1641      H1644   1.083       .  S
C1642     Br1648   1.919       .  S
H1643      C3546   1.084       .  S
Br1645     C3541   1.920       .  S
C1649      C1650   1.415       .  A
C1649      C1654   1.409       .  A
C1650      C1651   1.400       .  A
C1650     Br1666   1.920       .  S
C1651      C1652   1.402       .  A
C1651      H1655   1.084       .  S
C1652      C1656   1.478       .  S
C1652      C1653   1.404       .  A
C1653      C1654   1.398       .  A
C1653     Br1665   1.918       .  S
C1654      H1657   1.083       .  S
C1656      C1658   1.403       .  A
C1656      C1662   1.405       .  A
C1658      C1659   1.402       .  A
C1658      H1663   1.083       .  S
C1659      C1660   1.412       .  A
C1659     Br1667   1.919       .  S
C1660      C1661   1.406       .  A
C1661      C1662   1.396       .  A
C1661      H1664   1.084       .  S
C1662     Br1668   1.919       .  S
C1669      C1670   1.418       .  A
C1669      C3582   1.407       .  A
C1670      C1671   1.398       .  A
C1670     Br1686   1.923       .  S
C1671      C3580   1.400   1_554  A
C1671      H1675   1.084       .  S
C1672      C1676   1.480       .  S
C1672      C1673   1.408       .  A
C1672      C3579   1.400       .  A
C1673      C1674   1.398       .  A
C1673     Br1685   1.919       .  S
C1674      C3577   1.407       .  A
C1674      H1677   1.083       .  S
C1676      C1678   1.403       .  A
C1676      C1682   1.410       .  A
C1678      C1679   1.397       .  A
C1678      H1683   1.084       .  S
C1679      C1680   1.408       .  A
C1679     Br1687   1.919       .  S
C1680      C1681   1.402       .  A
C1681      C1682   1.401       .  A
C1681      H1684   1.083       .  S
C1682     Br1688   1.919       .  S
C1689      C1690   1.417       .  A
C1689      C1694   1.408       .  A
C1690      C1691   1.401       .  A
C1690     Br1706   1.922       .  S
C1691      C1692   1.402       .  A
C1691      H1695   1.084       .  S
C1692      C1696   1.481       .  S
C1692      C1693   1.405       .  A
C1693      C1694   1.398       .  A
C1693     Br1705   1.918       .  S
C1694      H1697   1.083       .  S
C1696      C1698   1.402       .  A
C1696      C1702   1.406       .  A
C1698      C1699   1.400       .  A
C1698      H1703   1.084       .  S
C1699      C1700   1.416       .  A
C1699     Br1707   1.921       .  S
C1700      C1701   1.408       .  A
C1701      C1702   1.401       .  A
C1701      H1704   1.083       .  S
C1702     Br1708   1.919       .  S
C1709      C1710   1.411       .  A
C1709      C1714   1.405       .  A
C1710      C1711   1.399       .  A
C1710     Br1726   1.920       .  S
C1711      C1712   1.404       .  A
C1711      H1715   1.083       .  S
C1712      C1716   1.490       .  S
C1712      C1713   1.412       .  A
C1713      C1714   1.404       .  A
C1713     Br3633   1.918       .  S
C1714      H1717   1.083       .  S
C1716      C1718   1.405       .  A
C1716      C1722   1.409       .  A
C1718      C3627   1.404       .  A
C1718      H3631   1.083       .  S
C1719      C3626   1.404   1_554  A
C1719      C3628   1.415   1_554  A
C1719     Br1727   1.918       .  S
C1720      C1721   1.408       .  A
C1720      C3627   1.415       .  A
C1721      C1722   1.400       .  A
C1721      H1724   1.083       .  S
C1722     Br1728   1.920       .  S
H1723      C3626   1.083   1_554  S
Br1725     C3621   1.918       .  S
C1729      C1730   1.416       .  A
C1729      C1734   1.407       .  A
C1730      C1731   1.403       .  A
C1730     Br1746   1.921       .  S
C1731      C1732   1.402       .  A
C1731      H1735   1.084       .  S
C1732      C1736   1.477       .  S
C1732      C1733   1.404       .  A
C1733      C1734   1.396       .  A
C1733     Br1745   1.919       .  S
C1734      H1737   1.083       .  S
C1736      C1738   1.398       .  A
C1736      C1742   1.406       .  A
C1738      C1739   1.398       .  A
C1738      H1743   1.084       .  S
C1739      C1740   1.419       .  A
C1739     Br1747   1.922       .  S
C1740      C1741   1.409       .  A
C1741      C1742   1.402       .  A
C1741      H1744   1.083       .  S
C1742     Br1748   1.918       .  S
C1749      C1750   1.417       .  A
C1749      C1754   1.409       .  A
C1750      C1751   1.402       .  A
C1750     Br1766   1.920       .  S
C1751      C1752   1.401       .  A
C1751      H1755   1.084       .  S
C1752      C1756   1.481       .  S
C1752      C1753   1.406       .  A
C1753      C1754   1.399       .  A
C1753     Br1765   1.920       .  S
C1754      H1757   1.083       .  S
C1756      C1758   1.403       .  A
C1756      C1762   1.408       .  A
C1758      C1759   1.403       .  A
C1758      H1763   1.083       .  S
C1759      C1760   1.413       .  A
C1759     Br1767   1.919       .  S
C1760      C1761   1.405       .  A
C1761      C1762   1.396       .  A
C1761      H1764   1.084       .  S
C1762     Br1768   1.921       .  S
C1769      C1770   1.416       .  A
C1769      C1774   1.407       .  A
C1770      C1771   1.407       .  A
C1770     Br1786   1.919       .  S
C1771      C1772   1.405       .  A
C1771      H1775   1.083       .  S
C1772      C1776   1.486       .  S
C1772      C1773   1.405       .  A
C1773      C1774   1.399       .  A
C1773     Br1785   1.918       .  S
C1774      H1777   1.083       .  S
C1776      C1778   1.403       .  A
C1776      C1782   1.405       .  A
C1778      C1779   1.405       .  A
C1778      H1783   1.084       .  S
C1779      C1780   1.418       .  A
C1779     Br1787   1.920       .  S
C1780      C1781   1.410       .  A
C1781      C1782   1.401       .  A
C1781      H1784   1.083       .  S
C1782     Br1788   1.919       .  S
C1789      C1790   1.418       .  A
C1789      C1794   1.407       .  A
C1790      C3699   1.399       .  A
C1790     Br1806   1.922       .  S
C1791      C1792   1.400       .  A
C1791      C3698   1.399   1_554  A
C1791      H1795   1.084       .  S
C1792      C1796   1.483       .  S
C1792      C1793   1.409       .  A
C1793      C3702   1.402   1_554  A
C1793     Br1805   1.919       .  S
C1794      C3701   1.402       .  A
C1794      H1797   1.083       .  S
C1796      C1798   1.402       .  A
C1796      C1802   1.411       .  A
C1798      C1799   1.400       .  A
C1798      H1803   1.083       .  S
C1799      C1800   1.412       .  A
C1799     Br1807   1.921       .  S
C1800      C1801   1.401       .  A
C1801      C1802   1.400       .  A
C1801      H1804   1.084       .  S
C1802     Br3716   1.919   1_554  S
Br1808     C3710   1.919       .  S
C1809      C1810   1.411       .  A
C1809      C1814   1.406       .  A
C1810      C1811   1.401       .  A
C1810     Br1826   1.919       .  S
C1811      C1812   1.402       .  A
C1811      H1815   1.083       .  S
C1812      C1816   1.479       .  S
C1812      C1813   1.407       .  A
C1813      C1814   1.400       .  A
C1813     Br1825   1.919       .  S
C1814      H1817   1.083       .  S
C1816      C1818   1.403       .  A
C1816      C1822   1.403       .  A
C1818      C1819   1.405       .  A
C1818      H1823   1.083       .  S
C1819      C1820   1.415       .  A
C1819     Br1827   1.920       .  S
C1820      C1821   1.408       .  A
C1821      C1822   1.396       .  A
C1821      H1824   1.083       .  S
C1822     Br1828   1.918       .  S
C1829      C1830   1.416       .  A
C1829      C1834   1.408       .  A
C1830      C1831   1.403       .  A
C1830     Br1846   1.920       .  S
C1831      C1832   1.403       .  A
C1831      H1835   1.083       .  S
C1832      C1836   1.480   1_565  S
C1832      C1833   1.404       .  A
C1833      C1834   1.397       .  A
C1833     Br1845   1.918       .  S
C1834      H1837   1.083       .  S
C1836      C1838   1.402       .  A
C1836      C1842   1.404       .  A
C1838      C1839   1.404       .  A
C1838      H1843   1.084       .  S
C1839      C1840   1.418       .  A
C1839     Br1847   1.921       .  S
C1840      C1841   1.408       .  A
C1841      C1842   1.398       .  A
C1841      H1844   1.083       .  S
C1842     Br1848   1.918       .  S
C1849      C1910   1.464   1_554  S
C1849      C1850   1.409       .  A
C1849      C3762   1.401       .  A
C1850      C1851   1.394       .  A
C1850     Br1866   1.921       .  S
C1851      C1852   1.400       .  A
C1851      H1855   1.084       .  S
C1852      C1856   1.471       .  S
C1852      C1853   1.408       .  A
C1853      C3762   1.399       .  A
C1853     Br1865   1.918       .  S
C1854      C3757   1.401       .  A
C1854      C3761   1.399       .  A
C1854      H1857   1.084       .  S
C1856      C1858   1.402       .  A
C1856      C1862   1.405       .  A
C1858      C1859   1.399       .  A
C1858      H1863   1.084       .  S
C1859      C1860   1.412       .  A
C1859     Br1867   1.920       .  S
C1860      C1861   1.406       .  A
C1861      C1862   1.394       .  A
C1861      H1864   1.083       .  S
C1862     Br1868   1.920       .  S
C1869      C1870   1.412       .  A
C1869      C1874   1.403       .  A
C1870      C1871   1.403       .  A
C1870     Br1886   1.919       .  S
C1871      C1872   1.404       .  A
C1871      H1875   1.083       .  S
C1872      C1876   1.474       .  S
C1872      C1873   1.406       .  A
C1873      C1874   1.390       .  A
C1873     Br1885   1.921       .  S
C1874      H1877   1.084       .  S
C1876      C1878   1.403       .  A
C1876      C1882   1.405       .  A
C1878      C1879   1.398       .  A
C1878      H1883   1.084       .  S
C1879      C1880   1.409       .  A
C1879     Br1887   1.919       .  S
C1880      C1881   1.406       .  A
C1881      C1882   1.398       .  A
C1881      H1884   1.084       .  S
C1882     Br1888   1.919       .  S
C1889      C1894   1.405       .  A
C1889      C3798   1.413       .  A
C1890      C1891   1.402       .  A
C1890      C3797   1.413   1_554  A
C1890     Br1906   1.919       .  S
C1891      C1892   1.402       .  A
C1891      H1895   1.083       .  S
C1892      C1896   1.480       .  S
C1892      C1893   1.408       .  A
C1893      C3802   1.399   1_554  A
C1893     Br3813   1.920       .  S
C1894      C3801   1.399       .  A
C1894      H1897   1.084       .  S
C1896      C1898   1.401       .  A
C1896      C1902   1.406       .  A
C1898      C1899   1.401       .  A
C1898      H1903   1.084       .  S
C1899      C1900   1.418       .  A
C1899     Br1907   1.921       .  S
C1900      C1901   1.407       .  A
C1901      C1902   1.399       .  A
C1901      H1904   1.083       .  S
C1902     Br1908   1.918       .  S
Br1905     C3801   1.920       .  S
In1909     O1911   2.233       .  S
In1909     O1912   2.245       .  S
In1909     O1920   2.225       .  S
In1909     O1914   2.252       .  S
In1909     O1916   2.250       .  S
In1909     O1917   2.242       .  S
In1909     O1918   2.204       .  S
In1909     O1921   2.228       .  S
C1910      O1916   1.268       .  A
C1910      O1918   1.259       .  A
O1911      C1919   1.263       .  A
O1912      C1919   1.266       .  A
C1913      O1920   1.263       .  A
C1913      O1914   1.265       .  A
C1913      C3737   1.487       .  S
C1915      O1917   1.266       .  A
C1915      O1921   1.260       .  A
C1915      C3788   1.474       .  S
C1919      C3797   1.480       .  S
In1922     O1924   2.242       .  S
In1922     O1925   2.249       .  S
In1922     O1933   2.239       .  S
In1922     O1927   2.270       .  S
In1922     O1929   2.268       .  S
In1922     O1930   2.250       .  S
In1922     O1931   2.221       .  S
In1922     O1934   2.241       .  S
C1923      O1929   1.267       .  A
C1923      O1931   1.257       .  A
C1923      C3708   1.474       .  S
O1924      C1932   1.259       .  A
O1925      C1932   1.264       .  A
C1926      O1933   1.262       .  A
C1926      O1927   1.265       .  A
C1926      C3677   1.490       .  S
C1928      O1930   1.265       .  A
C1928      O1934   1.263       .  A
C1928      C3717   1.480       .  S
C1932      C3808   1.487       .  S
In1935     O1937   2.224       .  S
In1935     O1938   2.243       .  S
In1935     O1946   2.231       .  S
In1935     O1940   2.250       .  S
In1935     O1942   2.259       .  S
In1935     O1943   2.234       .  S
In1935     O1944   2.205       .  S
In1935     O1947   2.252       .  S
C1936      O1942   1.265       .  A
C1936      O1944   1.259       .  A
C1936      C3777   1.472       .  S
O1937      C1945   1.260       .  A
O1938      C1945   1.262       .  A
C1939      O1946   1.261       .  A
C1939      O1940   1.262       .  A
C1939      C3637   1.485       .  S
C1941      O1943   1.262       .  A
C1941      O1947   1.262       .  A
C1941      C3668   1.481       .  S
C1945      C3768   1.476       .  S
In1948     O1950   2.224       .  S
In1948     O1951   2.263       .  S
In1948     O1959   2.234       .  S
In1948     O1953   2.262       .  S
In1948     O1955   2.264       .  S
In1948     O1956   2.249       .  S
In1948     O1957   2.216       .  S
In1948     O1960   2.235       .  S
C1949      O1955   1.267       .  A
C1949      O1957   1.260       .  A
C1949      C3728   1.486       .  S
O1950      C1958   1.259       .  A
O1951      C1958   1.266       .  A
C1952      O1959   1.261       .  A
C1952      O1953   1.265       .  A
C1952      C3617   1.482       .  S
C1954      O1956   1.265       .  A
C1954      O1960   1.263       .  A
C1954      C3657   1.489       .  S
C1958      C3697   1.489       .  S
In1961     O1963   2.236       .  S
In1961     O1964   2.242       .  S
In1961     O1972   2.237       .  S
In1961     O1966   2.257       .  S
In1961     O1968   2.266       .  S
In1961     O1969   2.243       .  S
In1961     O1970   2.217       .  S
In1961     O1973   2.223       .  S
C1962      O1968   1.267       .  A
C1962      O1970   1.259       .  A
C1962      C3568   1.479       .  S
O1963      C1971   1.262       .  A
O1964      C1971   1.261       .  A
C1965      O1972   1.261       .  A
C1965      O1966   1.263       .  A
C1965      C3537   1.487       .  S
C1967      O1969   1.265       .  A
C1967      O1973   1.260       .  A
C1967      C3577   1.483       .  S
C1971      C3597   1.486       .  S
In1974     O1976   2.250       .  S
In1974     O1977   2.250       .  S
In1974     O1985   2.248       .  S
In1974     O1979   2.260       .  S
In1974     O1981   2.263       .  S
In1974     O1982   2.250       .  S
In1974     O1983   2.231       .  S
In1974     O1986   2.225       .  S
C1975      O1981   1.262       .  A
C1975      O1983   1.256       .  A
C1975      C3497   1.470       .  S
O1976      C1984   1.260       .  A
O1977      C1984   1.260       .  A
C1978      O1985   1.261       .  A
C1978      O1979   1.260       .  A
C1978      C3748   1.490       .  S
C1980      O1982   1.264       .  A
C1980      O1986   1.264       .  A
C1980      C3528   1.486       .  S
C1984      C3608   1.485       .  S
In1987     O1989   2.221       .  S
In1987     O1990   2.239       .  S
In1987     O1998   2.235       .  S
In1987     O1992   2.254       .  S
In1987     O1994   2.275       .  S
In1987     O1995   2.244       .  S
In1987     O1996   2.212       .  S
In1987     O1999   2.227       .  S
C1988      O1994   1.268       .  A
C1988      O1996   1.258       .  A
C1988      C3517   1.475       .  S
O1989      C1997   1.264       .  A
O1990      C1997   1.265       .  A
C1991      O1998   1.261       .  A
C1991      O1992   1.267       .  A
C1991      C3457   1.491       .  S
C1993      O1995   1.265       .  A
C1993      O1999   1.261       .  A
C1993      C3477   1.477       .  S
C1997      C3508   1.484       .  S
In2000     O2002   2.224       .  S
In2000     O2003   2.258       .  S
In2000     O2011   2.250       .  S
In2000     O2005   2.248       .  S
In2000     O2007   2.262       .  S
In2000     O2008   2.247       .  S
In2000     O2009   2.221       .  S
In2000     O2012   2.231       .  S
C2001      O2007   1.266       .  A
C2001      O2009   1.259       .  A
C2001      C3588   1.470       .  S
O2002      C2010   1.260       .  A
O2003      C2010   1.265       .  A
C2004      O2011   1.264       .  A
C2004      O2005   1.264       .  A
C2004      C3437   1.494       .  S
C2006      O2008   1.266       .  A
C2006      O2012   1.263       .  A
C2006      C3488   1.488       .  S
C2010      C3557   1.486       .  S
In2013     O2018   2.254       .  S
In2013     O2020   2.270       .  S
In2013     O2021   2.242       .  S
In2013     O2022   2.211       .  S
In2013     O2025   2.241       .  S
C2014      O2020   1.266       .  A
C2014      O2022   1.258       .  A
C2014      C3408   1.472       .  S
O2015      C2023   1.260       .  A
O2016      C2023   1.264       .  A
C2017      O2018   1.264       .  A
C2019      O2021   1.264       .  A
C2019      O2025   1.263       .  A
C2019      C3428   1.486       .  S
C2023      C3377   1.481       .  S
In2026     O2028   2.230       .  S
In2026     O2029   2.247       .  S
In2026     O2037   2.229       .  S
In2026     O2031   2.249       .  S
In2026     O2033   2.259       .  S
In2026     O2034   2.241       .  S
In2026     O2035   2.223       .  S
In2026     O2038   2.232       .  S
C2027      O2033   1.265       .  A
C2027      O2035   1.258       .  A
C2027      C3337   1.472       .  S
O2028      C2036   1.260       .  A
O2029      C2036   1.262       .  A
C2030      O2037   1.261       .  A
C2030      O2031   1.263       .  A
C2030      C3297   1.484       .  S
C2032      O2034   1.265       .  A
C2032      O2038   1.262       .  A
C2032      C3417   1.483       .  S
C2036      C3328   1.484       .  S
In2039     O2041   2.238       .  S
In2039     O2042   2.241       .  S
In2039     O2050   2.242       .  S
In2039     O2044   2.259       .  S
In2039     O2046   2.274       .  S
In2039     O2047   2.241       .  S
In2039     O2048   2.207       .  S
In2039     O2051   2.225       .  S
C2040      O2046   1.270       .  A
C2040      O2048   1.258       .  A
C2040      C3388   1.481       .  S
O2041      C2049   1.263       .  A
O2042      C2049   1.264       .  A
C2043      O2050   1.262       .  A
C2043      O2044   1.266       .  A
C2043      C3688   1.495       .  S
C2045      O2047   1.266       .  A
C2045      O2051   1.261       .  A
C2045      C3397   1.478       .  S
C2049      C3288   1.484       .  S
In2052     O2054   2.240       .  S
In2052     O2055   2.242       .  S
In2052     O2057   2.249       .  S
In2052     O2059   2.262       .  S
In2052     O2061   2.202       .  S
C2053      O2059   1.267       .  A
C2053      O2061   1.258       .  A
C2053      C3317   1.468       .  S
O2054      C2062   1.261       .  A
O2055      C2062   1.262       .  A
C2056      O2063   1.261       .  A
C2056      C3548   1.485       .  S
C2058      O2060   1.266       .  A
C2058      O2064   1.262       .  A
C2058      C3348   1.479       .  S
C2062      C3277   1.487       .  S
In2065     O2067   2.229       .  S
In2065     O2068   2.246       .  S
In2065     O2076   2.228       .  S
In2065     O2070   2.261       .  S
In2065     O2072   2.261       .  S
In2065     O2073   2.254       .  S
In2065     O2074   2.206       .  S
In2065     O2077   2.230       .  S
C2066      O2072   1.268       .  A
C2066      O2074   1.259       .  A
C2066      C3228   1.474       .  S
O2067      C2075   1.261       .  A
O2068      C2075   1.267       .  A
C2069      O2076   1.260       .  A
C2069      O2070   1.266       .  A
C2069      C3648   1.489       .  S
C2071      O2073   1.265       .  A
C2071      O2077   1.261       .  A
C2071      C3268   1.480       .  S
C2075      C3248   1.484       .  S
In2078     O2080   2.236       .  S
In2078     O2081   2.252       .  S
In2078     O2089   2.238       .  S
In2078     O2083   2.261       .  S
In2078     O2085   2.271       .  S
In2078     O2086   2.254       .  S
In2078     O2087   2.202       .  S
In2078     O2090   2.233       .  S
C2079      O2085   1.269       .  A
C2079      O2087   1.260       .  A
C2079      C3197   1.475       .  S
O2080      C2088   1.260       .  A
O2081      C2088   1.266       .  A
C2082      O2089   1.261       .  A
C2082      O2083   1.265       .  A
C2082      C3157   1.488       .  S
C2084      O2086   1.266       .  A
C2084      O2090   1.261       .  A
C2084      C3257   1.476       .  S
C2088      C3177   1.490       .  S
In2091     O2093   2.241       .  S
In2091     O2094   2.241       .  S
In2091     O2102   2.227       .  S
In2091     O2096   2.263       .  S
In2091     O2098   2.270       .  S
In2091     O2099   2.248       .  S
In2091     O2100   2.203       .  S
In2091     O2103   2.231       .  S
C2092      O2098   1.267       .  A
C2092      O2100   1.258       .  A
C2092      C3237   1.473       .  S
O2093      C2101   1.262       .  A
O2094      C2101   1.262       .  A
C2095      O2102   1.259       .  A
C2095      O2096   1.265       .  A
C2095      C3128   1.489       .  S
C2097      O2099   1.265       .  A
C2097      O2103   1.261       .  A
C2097      C3217   1.486       .  S
C2101      C3137   1.486       .  S
In2104     O2106   2.249       .  S
In2104     O2107   2.236       .  S
In2104     O2115   2.226       .  S
In2104     O2109   2.259       .  S
In2104     O2111   2.269       .  S
In2104     O2112   2.244       .  S
In2104     O2113   2.209       .  S
In2104     O2116   2.232       .  S
C2105      O2111   1.269       .  A
C2105      O2113   1.259       .  A
C2105      C3188   1.478       .  S
O2106      C2114   1.263       .  A
O2107      C2114   1.263       .  A
C2108      O2115   1.261       .  A
C2108      O2109   1.265       .  A
C2108      C3097   1.486       .  S
C2110      O2112   1.265       .  A
C2110      O2116   1.262       .  A
C2110      C3208   1.476       .  S
C2114      C3148   1.482       .  S
In2117     O2119   2.225       .  S
In2117     O2120   2.256       .  S
In2117     O2128   2.245       .  S
In2117     O2122   2.250       .  S
In2117     O2124   2.260       .  S
In2117     O2125   2.254       .  S
In2117     O2126   2.217       .  S
In2117     O2129   2.221       .  S
C2118      O2124   1.267       .  A
C2118      O2126   1.259       .  A
C2118      C3037   1.477       .  S
O2119      C2127   1.259       .  A
O2120      C2127   1.266       .  A
C2121      O2128   1.263       .  A
C2121      O2122   1.263       .  A
C2121      C3028   1.491       .  S
C2123      O2125   1.267       .  A
C2123      O2129   1.260       .  A
C2123      C3068   1.486       .  S
C2127      C3088   1.486       .  S
In2130     O2132   2.237       .  S
In2130     O2133   2.258       .  S
In2130     O2135   2.250       .  S
In2130     O2137   2.258       .  S
In2130     O2139   2.211       .  S
C2131      O2137   1.264       .  A
C2131      O2139   1.256       .  A
C2131      C2988   1.466       .  S
O2132      C2140   1.258       .  A
O2133      C2140   1.264       .  A
C2134      O2141   1.263       .  A
C2134      C2957   1.490       .  S
C2136      O2138   1.266       .  A
C2136      O2142   1.263       .  A
C2136      C3008   1.479       .  S
C2140      C3077   1.487       .  S
In2143     O2148   2.266       .  S
In2143     O2150   2.266       .  S
In2143     O2151   2.251       .  S
In2143     O2152   2.211       .  S
In2143     O2155   2.241       .  S
C2144      O2150   1.268       .  A
C2144      O2152   1.259       .  A
C2144      C3057   1.472       .  S
O2145      C2153   1.260       .  A
O2146      C2153   1.267       .  A
C2147      O2154   1.263   1_554  A
C2147      C3628   1.491   1_554  S
C2149      O2151   1.266       .  A
C2149      O2155   1.264       .  A
C2149      C2948   1.489       .  S
C2153      C3048   1.477       .  S
In2156     O2158   2.223       .  S
In2156     O2159   2.247       .  S
In2156     O2167   2.239       .  S
In2156     O2161   2.259       .  S
In2156     O2163   2.264       .  S
In2156     O2164   2.261       .  S
In2156     O2165   2.205       .  S
In2156     O2168   2.228       .  S
C2157      O2163   1.269       .  A
C2157      O2165   1.260       .  A
C2157      C2997   1.476       .  S
O2158      C2166   1.262       .  A
O2159      C2166   1.265       .  A
C2160      O2167   1.260       .  A
C2160      O2161   1.265       .  A
C2160      C3168   1.489       .  S
C2162      O2164   1.264       .  A
C2162      O2168   1.260       .  A
C2162      C2937   1.474       .  S
C2166      C2977   1.484       .  S
In2169     O2171   2.239       .  S
In2169     O2172   2.238       .  S
In2169     O2180   2.227       .  S
In2169     O2174   2.264       .  S
In2169     O2176   2.268       .  S
In2169     O2177   2.241       .  S
In2169     O2178   2.220       .  S
In2169     O2181   2.230       .  S
C2170      O2176   1.268       .  A
C2170      O2178   1.259       .  A
C2170      C2888   1.483       .  S
O2171      C2179   1.263       .  A
O2172      C2179   1.263       .  A
C2173      O2180   1.260       .  A
C2173      O2174   1.267       .  A
C2173      C2857   1.490       .  S
C2175      O2177   1.266       .  A
C2175      O2181   1.262       .  A
C2175      C2908   1.482       .  S
C2179      C2928   1.484       .  S
In2182     O2184   2.244       .  S
In2182     O2185   2.241       .  S
In2182     O2193   2.243       .  S
In2182     O2187   2.254       .  S
In2182     O2189   2.265       .  S
In2182     O2190   2.251       .  S
In2182     O2191   2.213       .  S
In2182     O2194   2.239       .  S
C2183      O2189   1.265       .  A
C2183      O2191   1.258       .  A
C2183      C2817   1.468   1_556  S
O2184      C2192   1.264       .  A
O2185      C2192   1.263       .  A
C2186      O2193   1.258       .  A
C2186      O2187   1.264       .  A
C2186      C3117   1.488       .  S
C2188      O2190   1.262       .  A
C2188      O2194   1.258       .  A
C2188      C2837   1.476       .  S
C2192      C2917   1.488       .  S
In2195     O2197   2.228       .  S
In2195     O2198   2.249       .  S
In2195     O2206   2.237       .  S
In2195     O2200   2.253       .  S
In2195     O2202   2.259       .  S
In2195     O2203   2.258       .  S
In2195     O2204   2.212       .  S
In2195     O2207   2.237       .  S
C2196      O2202   1.267       .  A
C2196      O2204   1.259       .  A
C2196      C2897   1.472       .  S
O2197      C2205   1.262       .  A
O2198      C2205   1.265       .  A
C2199      O2206   1.261       .  A
C2199      O2200   1.264       .  A
C2199      C3368   1.485       .  S
C2201      O2203   1.264       .  A
C2201      O2207   1.261       .  A
C2201      C2808   1.487       .  S
C2205      C2877   1.488       .  S
In2208     O2210   2.231       .  S
In2208     O2211   2.242       .  S
In2208     O2219   2.229       .  S
In2208     O2213   2.250       .  S
In2208     O2215   2.265       .  S
In2208     O2216   2.244       .  S
In2208     O2217   2.200       .  S
In2208     O2220   2.237       .  S
C2209      O2215   1.268       .  A
C2209      O2217   1.258       .  A
C2209      C2848   1.470       .  S
O2210      C2218   1.259       .  A
O2211      C2218   1.265       .  A
C2212      O2219   1.261       .  A
C2212      O2213   1.266       .  A
C2212      C2777   1.483       .  S
C2214      O2216   1.265       .  A
C2214      O2220   1.263       .  A
C2214      C2797   1.477       .  S
C2218      C2828   1.480       .  S
In2221     O2223   2.240       .  S
In2221     O2224   2.251       .  S
In2221     O2232   2.242       .  S
In2221     O2226   2.264       .  S
In2221     O2228   2.263       .  S
In2221     O2229   2.270       .  S
In2221     O2230   2.211       .  S
In2221     O2233   2.239       .  S
C2222      O2228   1.266       .  A
C2222      O2230   1.258       .  A
C2222      C2748   1.468       .  S
O2223      C2231   1.262       .  A
O2224      C2231   1.267       .  A
C2225      O2232   1.262       .  A
C2225      O2226   1.263       .  A
C2225      C2697   1.489       .  S
C2227      O2229   1.265       .  A
C2227      O2233   1.259       .  A
C2227      C2757   1.490       .  S
C2231      C2728   1.492       .  S
In2234     O2236   2.227       .  S
In2234     O2237   2.240       .  S
In2234     O2245   2.229       .  S
In2234     O2239   2.251       .  S
In2234     O2241   2.255       .  S
In2234     O2242   2.250       .  S
In2234     O2243   2.202       .  S
In2234     O2246   2.241       .  S
C2235      O2241   1.268       .  A
C2235      O2243   1.258       .  A
C2235      C2688   1.470       .  S
O2236      C2244   1.262       .  A
O2237      C2244   1.268       .  A
C2238      O2245   1.264       .  A
C2238      O2239   1.265       .  A
C2238      C3468   1.489       .  S
C2240      O2242   1.264       .  A
C2240      O2246   1.262       .  A
C2240      C2768   1.488       .  S
C2244      C2657   1.480       .  S
In2247     O2249   2.230       .  S
In2247     O2250   2.238       .  S
In2247     O2258   2.232       .  S
In2247     O2252   2.257       .  S
In2247     O2254   2.274       .  S
In2247     O2255   2.225       .  S
In2247     O2256   2.222       .  S
In2247     O2259   2.230       .  S
C2248      O2254   1.268       .  A
C2248      O2256   1.258       .  A
C2248      C2717   1.479       .  S
O2249      C2257   1.261       .  A
O2250      C2257   1.262       .  A
C2251      O2258   1.261       .  A
C2251      O2252   1.266       .  A
C2251      C3017   1.485       .  S
C2253      O2255   1.263       .  A
C2253      O2259   1.264       .  A
C2253      C2737   1.477       .  S
C2257      C2648   1.474       .  S
In2260     O2262   2.228       .  S
In2260     O2263   2.257       .  S
In2260     O2271   2.241       .  S
In2260     O2265   2.244       .  S
In2260     O2267   2.267       .  S
In2260     O2268   2.241       .  S
In2260     O2269   2.213       .  S
In2260     O2272   2.229       .  S
C2261      O2267   1.265       .  A
C2261      O2269   1.257       .  A
O2262      C2270   1.260       .  A
O2263      C2270   1.262       .  A
C2264      O2271   1.262       .  A
C2264      O2265   1.262       .  A
C2264      C2617   1.485       .  S
C2266      O2268   1.264       .  A
C2266      O2272   1.262       .  A
C2266      C2677   1.480       .  S
C2270      C2637   1.486       .  S
In2273     O2275   2.234       .  S
In2273     O2276   2.245       .  S
In2273     O2284   2.235       .  S
In2273     O2278   2.256       .  S
In2273     O2280   2.272       .  S
In2273     O2281   2.236       .  S
In2273     O2282   2.217       .  S
In2273     O2285   2.226       .  S
C2274      O2280   1.268       .  A
C2274      O2282   1.258       .  A
C2274      C2557   1.478       .  S
O2275      C2283   1.261       .  A
O2276      C2283   1.264       .  A
C2277      O2284   1.262       .  A
C2277      O2278   1.265       .  A
C2277      C2628   1.489       .  S
C2279      O2281   1.266       .  A
C2279      O2285   1.262       .  A
C2279      C2577   1.474       .  S
C2283      C2608   1.482       .  S
In2286     O2288   2.235       .  S
In2286     O2289   2.250       .  S
In2286     O2297   2.250       .  S
In2286     O2291   2.244       .  S
In2286     O2293   2.258       .  S
In2286     O2294   2.265       .  S
In2286     O2295   2.220       .  S
In2286     O2298   2.222       .  S
C2287      O2293   1.263       .  A
C2287      O2295   1.259       .  A
C2287      C2517   1.470       .  S
O2288      C2296   1.261       .  A
O2289      C2296   1.265       .  A
C2290      O2297   1.262       .  A
C2290      O2291   1.260       .  A
C2290      C2968   1.488       .  S
C2292      O2294   1.264       .  A
C2292      O2298   1.257       .  A
C2292      C2537   1.485       .  S
C2296      C2597   1.486       .  S
In2299     O2301   2.232       .  S
In2299     O2302   2.248       .  S
In2299     O2310   2.235       .  S
In2299     O2304   2.249       .  S
In2299     O2306   2.259       .  S
In2299     O2307   2.249       .  S
In2299     O2308   2.200       .  S
In2299     O2311   2.238       .  S
C2300      O2306   1.266       .  A
C2300      O2308   1.259       .  A
C2300      C2588   1.473       .  S
O2301      C2309   1.261       .  A
O2302      C2309   1.266       .  A
C2303      O2310   1.262       .  A
C2303      O2304   1.263       .  A
C2303      C2788   1.488       .  S
C2305      O2307   1.264       .  A
C2305      O2311   1.259       .  A
C2305      C2497   1.484       .  S
C2309      C2568   1.485       .  S
In2312     O2314   2.231       .  S
In2312     O2315   2.224       .  S
In2312     O2323   2.219       .  S
In2312     O2317   2.259       .  S
In2312     O2319   2.269       .  S
In2312     O2320   2.232       .  S
In2312     O2321   2.198       .  S
In2312     O2324   2.234       .  S
C2313      O2319   1.268       .  A
C2313      O2321   1.258       .  A
C2313      C2548   1.476       .  S
O2314      C2322   1.263       .  A
O2315      C2322   1.263       .  A
C2316      O2323   1.258       .  A
C2316      O2317   1.265       .  A
C2316      C3308   1.484       .  S
C2318      O2320   1.260       .  A
C2318      O2324   1.262       .  A
C2318      C2508   1.481       .  S
C2322      C2528   1.471       .  S
In2325     O2327   2.216       .  S
In2325     O2328   2.246       .  S
In2325     O2336   2.229       .  S
In2325     O2330   2.257       .  S
In2325     O2332   2.262       .  S
In2325     O2333   2.249       .  S
In2325     O2334   2.199       .  S
In2325     O2337   2.220       .  S
C2326      O2332   1.271       .  A
C2326      O2334   1.259       .  A
C2326      C2457   1.479       .  S
O2327      C2335   1.262       .  A
O2328      C2335   1.269       .  A
C2329      O2336   1.263       .  A
C2329      O2330   1.267       .  A
C2329      C3448   1.483       .  S
C2331      O2333   1.268       .  A
C2331      O2337   1.262       .  A
C2331      C2477   1.479       .  S
C2335      C2437   1.481       .  S
In2338     O2343   2.247       .  S
In2338     O2345   2.243       .  S
In2338     O2346   2.261       .  S
In2338     O2347   2.228       .  S
In2338     O2350   2.224       .  S
C2339      O2345   1.265       .  A
C2339      O2347   1.262       .  A
C2339      C2428   1.474       .  S
O2340      C2348   1.258       .  A
O2341      C2348   1.267       .  A
C2342      O2349   1.262   1_554  A
C2342      C2708   1.481   1_554  S
C2344      O2346   1.268       .  A
C2344      O2350   1.261       .  A
C2344      C2488   1.479       .  S
C2348      C2397   1.487       .  S
In2351     O2353   2.224       .  S
In2351     O2354   2.248       .  S
In2351     O2356   2.242       .  S
In2351     O2358   2.259       .  S
In2351     O2360   2.208       .  S
C2352      O2358   1.268       .  A
C2352      O2360   1.259       .  A
C2352      C2448   1.477       .  S
O2353      C2361   1.260       .  A
O2354      C2361   1.266       .  A
C2355      O2362   1.262       .  A
C2355      C3108   1.484       .  S
C2357      O2359   1.266       .  A
C2357      O2363   1.261       .  A
C2357      C2468   1.476       .  S
C2361      C2377   1.479       .  S
In2364     O2366   2.228       .  S
In2364     O2367   2.242       .  S
In2364     O2375   2.228       .  S
In2364     O2369   2.265       .  S
In2364     O2371   2.269       .  S
In2364     O2372   2.241       .  S
In2364     O2373   2.212       .  S
In2364     O2376   2.226       .  S
C2365      O2371   1.272       .  A
C2365      O2373   1.260       .  A
C2365      C2408   1.483       .  S
O2366      C2374   1.262       .  A
O2367      C2374   1.267       .  A
C2368      O2375   1.261       .  A
C2368      O2369   1.270       .  A
C2368      C2868   1.494       .  S
C2370      O2372   1.267       .  A
C2370      O2376   1.264       .  A
C2370      C2417   1.478       .  S
C2374      C2388   1.485       .  S
C2377      C2378   1.415       .  A
C2377      C2382   1.404       .  A
C2378      C2379   1.401       .  A
C2378     Br2394   1.921       .  S
C2379      C2380   1.401       .  A
C2379      H2383   1.083       .  S
C2380      C2384   1.477   1_655  S
C2380      C2381   1.407       .  A
C2381      C2382   1.397       .  A
C2381     Br2393   1.920   1_655  S
C2382      H2385   1.083       .  S
C2384      C2386   1.400       .  A
C2384      C2390   1.406       .  A
C2386      C2387   1.401       .  A
C2386      H2391   1.084       .  S
C2387      C2388   1.418       .  A
C2387     Br2395   1.921       .  S
C2388      C2389   1.406       .  A
C2389      C2390   1.398       .  A
C2389      H2392   1.083       .  S
C2390     Br2396   1.919   1_455  S
C2397      C2398   1.417       .  A
C2397      C2402   1.405       .  A
C2398      C2399   1.402       .  A
C2398     Br2414   1.922       .  S
C2399      C2400   1.401       .  A
C2399      H2403   1.083       .  S
C2400      C2404   1.485       .  S
C2400      C2401   1.409       .  A
C2401      C2402   1.402       .  A
C2401     Br2413   1.919       .  S
C2402      H2405   1.083       .  S
C2404      C2406   1.401       .  A
C2404      C2410   1.410       .  A
C2406      C2407   1.400       .  A
C2406      H2411   1.084       .  S
C2407      C2408   1.416       .  A
C2407     Br2415   1.923       .  S
C2408      C2409   1.404       .  A
C2409      C2410   1.403       .  A
C2409      H2412   1.083       .  S
C2410     Br2416   1.918       .  S
C2417      C2418   1.410       .  A
C2417      C2422   1.406       .  A
C2418      C2419   1.399       .  A
C2418     Br2434   1.918       .  S
C2419      C2420   1.403       .  A
C2419      H2423   1.084       .  S
C2420      C2424   1.479       .  S
C2420      C2421   1.407       .  A
C2421      C2422   1.398       .  A
C2421     Br2433   1.920       .  S
C2422      H2425   1.084       .  S
C2424      C2426   1.403       .  A
C2424      C2430   1.408       .  A
C2426      C2427   1.401       .  A
C2426      H2431   1.083       .  S
C2427      C2428   1.410       .  A
C2427     Br2435   1.919       .  S
C2428      C2429   1.403       .  A
C2429      C2430   1.396       .  A
C2429      H2432   1.083       .  S
C2430     Br2436   1.921       .  S
C2437      C2438   1.416       .  A
C2437      C2442   1.405       .  A
C2438      C2439   1.399       .  A
C2438     Br2454   1.921       .  S
C2439      C2440   1.399       .  A
C2439      H2443   1.084       .  S
C2440      C2444   1.477       .  S
C2440      C2441   1.408       .  A
C2441      C2442   1.398       .  A
C2441     Br2453   1.920       .  S
C2442      H2445   1.083       .  S
C2444      C2446   1.398       .  A
C2444      C2450   1.409       .  A
C2446      C2447   1.393       .  A
C2446      H2451   1.084       .  S
C2447      C2448   1.414       .  A
C2447     Br2455   1.921       .  S
C2448      C2449   1.406       .  A
C2449      C2450   1.402       .  A
C2449      H2452   1.083       .  S
C2450     Br2456   1.918       .  S
C2457      C2458   1.416       .  A
C2457      C2462   1.404       .  A
C2458      C2459   1.395       .  A
C2458     Br2474   1.924       .  S
C2459      C2460   1.400       .  A
C2459      H2463   1.084       .  S
C2460      C2464   1.481       .  S
C2460      C2461   1.410       .  A
C2461      C2462   1.401       .  A
C2461     Br2473   1.919       .  S
C2462      H2465   1.083       .  S
C2464      C2466   1.400       .  A
C2464      C2470   1.411       .  A
C2466      C2467   1.396       .  A
C2466      H2471   1.084       .  S
C2467      C2468   1.413       .  A
C2467     Br2475   1.920       .  S
C2468      C2469   1.404       .  A
C2469      C2470   1.401       .  A
C2469      H2472   1.083       .  S
C2470     Br2476   1.919       .  S
C2477      C2478   1.414       .  A
C2477      C2482   1.403       .  A
C2478      C2479   1.397       .  A
C2478     Br2494   1.923       .  S
C2479      C2480   1.403       .  A
C2479      H2483   1.083       .  S
C2480      C2484   1.489   1_655  S
C2480      C2481   1.414       .  A
C2481      C2482   1.402       .  A
C2481     Br2493   1.920   1_655  S
C2482      H2485   1.083       .  S
C2484      C2486   1.402       .  A
C2484      C2490   1.414       .  A
C2486      C2487   1.395       .  A
C2486      H2491   1.083       .  S
C2487      C2488   1.412       .  A
C2487     Br2495   1.921       .  S
C2488      C2489   1.404       .  A
C2489      C2490   1.404       .  A
C2489      H2492   1.083       .  S
C2490     Br2496   1.920   1_455  S
C2497      C2498   1.418       .  A
C2498     Br2514   1.920       .  S
C2499      C2500   1.399       .  A
C2499      H2503   1.084       .  S
C2500      C2504   1.474       .  S
C2500      C2501   1.406       .  A
C2501      C2502   1.397   1_556  A
C2501     Br2513   1.921       .  S
C2504      C2506   1.400       .  A
C2504      C2510   1.404       .  A
C2506      C2507   1.399       .  A
C2506      H2511   1.084       .  S
C2507      C2508   1.418       .  A
C2507     Br2515   1.922       .  S
C2508      C2509   1.407       .  A
C2509      C2510   1.396       .  A
C2509      H2512   1.083       .  S
C2517      C2518   1.410       .  A
C2517      C2522   1.404       .  A
C2518      C2519   1.395       .  A
C2518     Br2534   1.922       .  S
C2519      C2520   1.400       .  A
C2519      H2523   1.084       .  S
C2520      C2524   1.470       .  S
C2520      C2521   1.406       .  A
C2521      C2522   1.400       .  A
C2521     Br2533   1.918       .  S
C2522      H2525   1.083       .  S
C2524      C2526   1.401       .  A
C2524      C2530   1.405       .  A
C2526      C2527   1.396       .  A
C2526      H2531   1.084       .  S
C2527      C2528   1.409       .  A
C2527     Br2535   1.920       .  S
C2528      C2529   1.405       .  A
C2529      C2530   1.397       .  A
C2529      H2532   1.084       .  S
C2530     Br2536   1.918       .  S
C2537      C2542   1.407       .  A
C2538      C2539   1.397       .  A
C2538     Br2554   1.922       .  S
C2539      C2540   1.396       .  A
C2539      H2543   1.084       .  S
C2540      C2544   1.475   1_554  S
C2541      C2542   1.400       .  A
C2541     Br2553   1.920       .  S
C2542      H2545   1.083       .  S
C2544      C2546   1.404       .  A
C2544      C2550   1.404       .  A
C2546      C2547   1.403       .  A
C2546      H2551   1.083   1_556  S
C2547      C2548   1.412       .  A
C2547     Br2555   1.919       .  S
C2548      C2549   1.405       .  A
C2549      C2550   1.392       .  A
C2549      H2552   1.084       .  S
C2550     Br2556   1.919       .  S
C2557      C2558   1.413       .  A
C2557      C2562   1.404       .  A
C2558      C2559   1.398       .  A
C2558     Br2574   1.922       .  S
C2559      C2560   1.399       .  A
C2559      H2563   1.084       .  S
C2560      C2564   1.478       .  S
C2560      C2561   1.408       .  A
C2561      C2562   1.403       .  A
C2561     Br2573   1.917       .  S
C2562      H2565   1.083       .  S
C2564      C2566   1.400       .  A
C2564      C2570   1.406       .  A
C2566      C2567   1.401       .  A
C2566      H2571   1.084       .  S
C2567      C2568   1.417       .  A
C2567     Br2575   1.921       .  S
C2568      C2569   1.406       .  A
C2569      C2570   1.399       .  A
C2569      H2572   1.083       .  S
C2570     Br2576   1.918       .  S
C2577      C2578   1.413       .  A
C2577      C2582   1.404       .  A
C2578      C2579   1.400       .  A
C2578     Br2594   1.920       .  S
C2579      C2580   1.400       .  A
C2579      H2583   1.083       .  S
C2580      C2584   1.470       .  S
C2580      C2581   1.405       .  A
C2581      C2582   1.395       .  A
C2581     Br2593   1.920       .  S
C2582      H2585   1.084       .  S
C2584      C2586   1.403       .  A
C2584      C2590   1.403       .  A
C2586      C2587   1.401       .  A
C2586      H2591   1.083       .  S
C2587     Br2595   1.919       .  S
C2588      C2589   1.405       .  A
C2589      H2592   1.084       .  S
C2597      C2598   1.417       .  A
C2597      C2602   1.406       .  A
C2598      C2599   1.401       .  A
C2598     Br2614   1.921       .  S
C2599      C2600   1.401       .  A
C2599      H2603   1.083       .  S
C2600      C2604   1.479       .  S
C2600      C2601   1.407       .  A
C2601      C2602   1.398       .  A
C2601     Br2613   1.919       .  S
C2602      H2605   1.083       .  S
C2604      C2606   1.402       .  A
C2604      C2610   1.407       .  A
C2606      C2607   1.402       .  A
C2606      H2611   1.083       .  S
C2607      C2608   1.415       .  A
C2607     Br2615   1.921       .  S
C2608      C2609   1.405       .  A
C2609      C2610   1.397       .  A
C2609      H2612   1.083       .  S
C2610     Br2616   1.919       .  S
C2617      C2618   1.415       .  A
C2617      C2622   1.407       .  A
C2618      C2619   1.401       .  A
C2618     Br2634   1.921       .  S
C2619      C2620   1.402       .  A
C2619      H2623   1.084       .  S
C2620      C2624   1.482       .  S
C2620      C2621   1.407       .  A
C2621      C2622   1.399       .  A
C2621     Br2633   1.919       .  S
C2622      H2625   1.083       .  S
C2624      C2626   1.402       .  A
C2624      C2630   1.406       .  A
C2626      C2627   1.402       .  A
C2626      H2631   1.084       .  S
C2627      C2628   1.415       .  A
C2627     Br2635   1.919       .  S
C2628      C2629   1.409       .  A
C2629      C2630   1.399       .  A
C2629      H2632   1.083       .  S
C2630     Br2636   1.920       .  S
C2637      C2638   1.416       .  A
C2638     Br2654   1.920       .  S
C2639      C2640   1.402       .  A
C2640      C2644   1.476       .  S
C2640      C2641   1.403       .  A
C2641      C2642   1.396       .  A
C2641     Br2653   1.919       .  S
C2642      H2645   1.083       .  S
C2644      C2646   1.402       .  A
C2644      C2650   1.405       .  A
C2646      C2647   1.397       .  A
C2646      H2651   1.084       .  S
C2647      C2648   1.412       .  A
C2647     Br2655   1.922       .  S
C2648      C2649   1.405       .  A
C2649      C2650   1.398       .  A
C2649      H2652   1.084       .  S
C2650     Br2656   1.917       .  S
C2657      C2658   1.416       .  A
C2657      C2662   1.405       .  A
C2658      C2659   1.400       .  A
C2658     Br2674   1.921       .  S
C2659      C2660   1.400       .  A
C2659      H2663   1.084       .  S
C2660      C2664   1.475       .  S
C2660      C2661   1.406       .  A
C2661      C2662   1.396       .  A
C2661     Br2673   1.919       .  S
C2662      H2665   1.083       .  S
C2664      C2666   1.399       .  A
C2664      C2670   1.407       .  A
C2666      H2671   1.084       .  S
C2667     Br2675   1.923       .  S
C2668      C2669   1.404       .  A
C2669      C2670   1.401       .  A
C2669      H2672   1.083       .  S
C2670     Br2676   1.918       .  S
C2677      C2678   1.415       .  A
C2677      C2682   1.407       .  A
C2678      C2679   1.399       .  A
C2678     Br2694   1.921       .  S
C2679      C2680   1.399       .  A
C2679      H2683   1.084       .  S
C2680      C2684   1.471       .  S
C2680      C2681   1.403       .  A
C2681      C2682   1.397       .  A
C2681     Br2693   1.919       .  S
C2682      H2685   1.083       .  S
C2684      C2686   1.399       .  A
C2684      C2690   1.407       .  A
C2686      C2687   1.397       .  A
C2686      H2691   1.084       .  S
C2687      C2688   1.414       .  A
C2687     Br2695   1.923       .  S
C2688      C2689   1.402       .  A
C2689      C2690   1.397       .  A
C2689      H2692   1.083       .  S
C2690     Br2696   1.918       .  S
C2697      C2698   1.416       .  A
C2697      C2702   1.408       .  A
C2698      C2699   1.403       .  A
C2698     Br2714   1.919       .  S
C2699      C2700   1.403       .  A
C2699      H2703   1.084       .  S
C2700      C2704   1.483       .  S
C2700      C2701   1.406       .  A
C2701      C2702   1.400       .  A
C2702      H2705   1.083       .  S
C2704      C2706   1.403       .  A
C2704      C2710   1.407       .  A
C2706      C2707   1.402       .  A
C2706      H2711   1.083       .  S
C2707      C2708   1.413       .  A
C2708      C2709   1.405       .  A
C2709      C2710   1.400       .  A
C2709      H2712   1.083       .  S
C2710     Br2716   1.917       .  S
C2717      C2718   1.413       .  A
C2717      C2722   1.403       .  A
C2718      C2719   1.401       .  A
C2718     Br2734   1.923       .  S
C2719      C2720   1.402       .  A
C2719      H2723   1.084       .  S
C2720      C2724   1.483       .  S
C2720      C2721   1.409       .  A
C2721      C2722   1.403       .  A
C2721     Br2733   1.918       .  S
C2722      H2725   1.083       .  S
C2724      C2726   1.401       .  A
C2724      C2730   1.406       .  A
C2726      C2727   1.404       .  A
C2726      H2731   1.084       .  S
C2727     Br2735   1.922       .  S
C2728      C2729   1.407       .  A
C2729      H2732   1.083       .  S
C2737      C2738   1.414       .  A
C2737      C2742   1.407       .  A
C2738      C2739   1.396       .  A
C2738     Br2754   1.922       .  S
C2739      C2740   1.400       .  A
C2739      H2743   1.084       .  S
C2740      C2744   1.472       .  S
C2740      C2741   1.404       .  A
C2741      C2742   1.398       .  A
C2741     Br2753   1.917       .  S
C2742      H2745   1.083       .  S
C2744      C2746   1.399       .  A
C2744      C2750   1.409       .  A
C2746      C2747   1.396       .  A
C2746      H2751   1.084       .  S
C2747      C2748   1.410       .  A
C2747     Br2755   1.920       .  S
C2748      C2749   1.402       .  A
C2749      C2750   1.400       .  A
C2749      H2752   1.084       .  S
C2750     Br2756   1.919       .  S
C2757      C2758   1.417       .  A
C2757      C2762   1.408       .  A
C2758      C2759   1.400       .  A
C2758     Br2774   1.921       .  S
C2759      C2760   1.400       .  A
C2759      H2763   1.084       .  S
C2760      C2764   1.484       .  S
C2760      C2761   1.409       .  A
C2761      C2762   1.404       .  A
C2761     Br2773   1.919       .  S
C2762      H2765   1.083       .  S
C2764      C2766   1.402       .  A
C2764      C2770   1.407       .  A
C2766      C2767   1.400       .  A
C2766      H2771   1.084       .  S
C2767      C2768   1.416       .  A
C2767     Br2775   1.921       .  S
C2768      C2769   1.409       .  A
C2769      C2770   1.403       .  A
C2769      H2772   1.083       .  S
C2770     Br2776   1.918       .  S
C2777      C2778   1.416       .  A
C2777      C2782   1.406       .  A
C2778      C2779   1.400       .  A
C2778     Br2794   1.921       .  S
C2779      C2780   1.401       .  A
C2779      H2783   1.084       .  S
C2780      C2784   1.479   1_565  S
C2780      C2781   1.406       .  A
C2781      C2782   1.400       .  A
C2781     Br2793   1.919   1_565  S
C2782      H2785   1.083       .  S
C2784      C2786   1.401       .  A
C2784      C2790   1.404       .  A
C2786      C2787   1.401       .  A
C2786      H2791   1.084       .  S
C2787      C2788   1.417       .  A
C2787     Br2795   1.921       .  S
C2788      C2789   1.408       .  A
C2789      C2790   1.398       .  A
C2789      H2792   1.083       .  S
C2790     Br2796   1.919       .  S
C2797      C2798   1.410       .  A
C2797      C2802   1.403       .  A
C2798      C2799   1.404       .  A
C2798     Br2814   1.919       .  S
C2799      C2800   1.404       .  A
C2799      H2803   1.083       .  S
C2800      C2804   1.483       .  S
C2800      C2801   1.410       .  A
C2801      C2802   1.398       .  A
C2801     Br2813   1.921       .  S
C2802      H2805   1.084       .  S
C2804      C2806   1.404       .  A
C2804      C2810   1.407       .  A
C2806      C2807   1.404       .  A
C2806      H2811   1.083       .  S
C2807      C2808   1.414       .  A
C2807     Br2815   1.920       .  S
C2808      C2809   1.407       .  A
C2809      C2810   1.398       .  A
C2809      H2812   1.083       .  S
C2810     Br2816   1.920       .  S
C2817      C2818   1.410       .  A
C2818     Br2834   1.918   1_554  S
C2819      C2820   1.402       .  A
C2819      H2823   1.083       .  S
C2820      C2824   1.473       .  S
C2820      C2821   1.406       .  A
C2821      C2822   1.395       .  A
C2821     Br2833   1.920       .  S
C2822      H2825   1.084       .  S
C2824      C2826   1.398       .  A
C2824      C2830   1.406       .  A
C2826      C2827   1.400       .  A
C2826      H2831   1.084       .  S
C2827      C2828   1.418       .  A
C2827     Br2835   1.920       .  S
C2828      C2829   1.404       .  A
C2829      C2830   1.396       .  A
C2829      H2832   1.083       .  S
C2830     Br2836   1.919       .  S
C2837      C2838   1.410       .  A
C2837      C2842   1.406       .  A
C2838      C2839   1.398       .  A
C2838     Br2854   1.919       .  S
C2839      C2840   1.403       .  A
C2839      H2843   1.084       .  S
C2840      C2844   1.478       .  S
C2840      C2841   1.406       .  A
C2841      C2842   1.399       .  A
C2841     Br2853   1.919       .  S
C2842      H2845   1.084       .  S
C2844      C2846   1.406       .  A
C2844      C2850   1.407       .  A
C2846      C2847   1.403       .  A
C2846      H2851   1.083       .  S
C2847      C2848   1.408       .  A
C2847     Br2855   1.917       .  S
C2848      C2849   1.402       .  A
C2849      C2850   1.393       .  A
C2849      H2852   1.084       .  S
C2850     Br2856   1.920       .  S
C2857      C2858   1.420       .  A
C2857      C2862   1.407       .  A
C2858      C2859   1.401       .  A
C2858     Br2874   1.923       .  S
C2859      C2860   1.399       .  A
C2859      H2863   1.084       .  S
C2860      C2864   1.482       .  S
C2860      C2861   1.406       .  A
C2861      C2862   1.402       .  A
C2861     Br2873   1.917       .  S
C2862      H2865   1.083       .  S
C2864      C2866   1.399       .  A
C2864      C2870   1.406       .  A
C2866      C2867   1.401       .  A
C2866      H2871   1.084       .  S
C2867      C2868   1.421       .  A
C2867     Br2875   1.922       .  S
C2868      C2869   1.408       .  A
C2869      C2870   1.403       .  A
C2869      H2872   1.083       .  S
C2870     Br2876   1.917       .  S
C2877      C2878   1.416       .  A
C2878     Br2894   1.921       .  S
C2879      C2880   1.402       .  A
C2879      H2883   1.084       .  S
C2880      C2884   1.481       .  S
C2880      C2881   1.404       .  A
C2881      C2882   1.398       .  A
C2881     Br2893   1.918       .  S
C2884      C2886   1.404       .  A
C2884      C2890   1.405       .  A
C2886      C2887   1.404       .  A
C2886      H2891   1.083       .  S
C2887      C2888   1.413       .  A
C2887     Br2895   1.919       .  S
C2888      C2889   1.407       .  A
C2889      C2890   1.397       .  A
C2889      H2892   1.084       .  S
C2890     Br2896   1.919       .  S
C2897      C2898   1.409       .  A
C2897      C2902   1.405       .  A
C2898      C2899   1.400       .  A
C2898     Br2914   1.918       .  S
C2899      C2900   1.403       .  A
C2899      H2903   1.083       .  S
C2900      C2904   1.474       .  S
C2900      C2901   1.405       .  A
C2901      C2902   1.396       .  A
C2901     Br2913   1.919       .  S
C2902      H2905   1.084       .  S
C2904      C2906   1.399       .  A
C2904      C2910   1.407       .  A
C2906      C2907   1.400       .  A
C2906      H2911   1.084       .  S
C2907      C2908   1.417       .  A
C2907     Br2915   1.921       .  S
C2908      C2909   1.405       .  A
C2909      C2910   1.396       .  A
C2909      H2912   1.083       .  S
C2910     Br2916   1.920       .  S
C2917      C2918   1.417       .  A
C2918     Br2934   1.921       .  S
C2919      C2920   1.401       .  A
C2919      H2923   1.084       .  S
C2920      C2924   1.479       .  S
C2920      C2921   1.405       .  A
C2921      C2922   1.400       .  A
C2921     Br2933   1.918       .  S
C2922      H2925   1.083       .  S
C2924      C2926   1.400       .  A
C2924      C2930   1.406       .  A
C2926      C2927   1.398       .  A
C2926      H2931   1.084       .  S
C2927      C2928   1.416       .  A
C2927     Br2935   1.921       .  S
C2928      C2929   1.408       .  A
C2929      C2930   1.401       .  A
C2929      H2932   1.083       .  S
C2930     Br2936   1.918       .  S
C2937      C2938   1.407       .  A
C2937      C2942   1.401       .  A
C2938      C2939   1.405       .  A
C2938     Br2954   1.918       .  S
C2939      C2940   1.409       .  A
C2939      H2943   1.083       .  S
C2940      C2944   1.490       .  S
C2940      C2941   1.412       .  A
C2941      C2942   1.396       .  A
C2941     Br2953   1.921       .  S
C2942      H2945   1.084       .  S
C2944      C2946   1.406       .  A
C2944      C2950   1.409       .  A
C2946      C2947   1.403       .  A
C2946      H2951   1.084       .  S
C2947      C2948   1.413       .  A
C2947     Br2955   1.919       .  S
C2948      C2949   1.408       .  A
C2949      C2950   1.401       .  A
C2949      H2952   1.083       .  S
C2950     Br2956   1.920       .  S
C2957      C2958   1.418       .  A
C2957      C2962   1.408       .  A
C2958      C2959   1.403       .  A
C2959      C2960   1.402       .  A
C2959      H2963   1.084       .  S
C2960      C2964   1.482       .  S
C2960      C2961   1.406       .  A
C2961      C2962   1.399       .  A
C2961     Br2973   1.919       .  S
C2962      H2965   1.083       .  S
C2964      C2966   1.401       .  A
C2964      C2970   1.406       .  A
C2966      C2967   1.402       .  A
C2966      H2971   1.084       .  S
C2967      C2968   1.417       .  A
C2967     Br2975   1.921       .  S
C2968      C2969   1.408       .  A
C2969      C2970   1.400       .  A
C2969      H2972   1.083       .  S
C2970     Br2976   1.919       .  S
C2977      C2978   1.417       .  A
C2977      C2982   1.409       .  A
C2978      C2979   1.400       .  A
C2978     Br2994   1.921       .  S
C2979      C2980   1.401       .  A
C2979      H2983   1.084       .  S
C2980      C2984   1.472       .  S
C2980      C2981   1.402       .  A
C2981      C2982   1.396       .  A
C2981     Br2993   1.919       .  S
C2982      H2985   1.083       .  S
C2984      C2986   1.403       .  A
C2984      C2990   1.406       .  A
C2986      C2987   1.400       .  A
C2986      H2991   1.083       .  S
C2987      C2988   1.409       .  A
C2987     Br2995   1.920       .  S
C2988      C2989   1.402       .  A
C2989      C2990   1.394       .  A
C2989      H2992   1.084       .  S
C2990     Br2996   1.919       .  S
C2997      C2998   1.414       .  A
C2997      C3002   1.404       .  A
C2998      C2999   1.396       .  A
C2998     Br3014   1.923       .  S
C2999      C3000   1.399       .  A
C2999      H3003   1.084       .  S
C3000      C3004   1.476       .  S
C3000      C3001   1.408       .  A
C3001      C3002   1.402       .  A
C3001     Br3013   1.918       .  S
C3002      H3005   1.083       .  S
C3004      C3006   1.401       .  A
C3004      C3010   1.405       .  A
C3006      C3007   1.398       .  A
C3006      H3011   1.084       .  S
C3007      C3008   1.413       .  A
C3007     Br3015   1.921       .  S
C3008      C3009   1.407       .  A
C3009      C3010   1.399       .  A
C3009      H3012   1.083       .  S
C3010     Br3016   1.917       .  S
C3017      C3018   1.413       .  A
C3017      C3022   1.408       .  A
C3018      C3019   1.402       .  A
C3018     Br3034   1.919       .  S
C3019      C3020   1.403       .  A
C3019      H3023   1.084       .  S
C3020      C3024   1.481       .  S
C3020      C3021   1.405       .  A
C3021      C3022   1.399       .  A
C3021     Br3033   1.918       .  S
C3022      H3025   1.083       .  S
C3024      C3026   1.401       .  A
C3024      C3030   1.404       .  A
C3026      C3027   1.403       .  A
C3026      H3031   1.084       .  S
C3027      C3028   1.418       .  A
C3027     Br3035   1.921       .  S
C3028      C3029   1.409       .  A
C3029      C3030   1.400       .  A
C3029      H3032   1.083       .  S
C3030     Br3036   1.918       .  S
C3037      C3038   1.414       .  A
C3037      C3042   1.404       .  A
C3038      C3039   1.399       .  A
C3038     Br3054   1.922       .  S
C3039      C3040   1.400       .  A
C3039      H3043   1.084       .  S
C3040      C3044   1.479       .  S
C3040      C3041   1.409       .  A
C3041      C3042   1.400       .  A
C3041     Br3053   1.918       .  S
C3042      H3045   1.083       .  S
C3044      C3046   1.401       .  A
C3044      C3050   1.409       .  A
C3046      C3047   1.399       .  A
C3046      H3051   1.084       .  S
C3047      C3048   1.412       .  A
C3047     Br3055   1.921       .  S
C3048      C3049   1.404       .  A
C3049      C3050   1.401       .  A
C3049      H3052   1.083       .  S
C3050     Br3056   1.919       .  S
C3057      C3058   1.408       .  A
C3057      C3062   1.403       .  A
C3058      C3059   1.395       .  A
C3058     Br3074   1.918       .  S
C3059      C3060   1.402       .  A
C3059      H3063   1.084       .  S
C3060      C3064   1.484       .  S
C3060      C3061   1.412       .  A
C3061      C3062   1.403       .  A
C3061     Br3073   1.918       .  S
C3062      H3065   1.083       .  S
C3064      C3066   1.400       .  A
C3064      C3070   1.410       .  A
C3066      C3067   1.398       .  A
C3066      H3071   1.084       .  S
C3067      C3068   1.419       .  A
C3067     Br3075   1.922       .  S
C3068      C3069   1.406       .  A
C3069      C3070   1.400       .  A
C3069      H3072   1.083       .  S
C3070     Br3076   1.920       .  S
C3077      C3078   1.417       .  A
C3077      C3082   1.407       .  A
C3078      C3079   1.401       .  A
C3078     Br3094   1.920       .  S
C3079      C3080   1.400       .  A
C3079      H3083   1.084       .  S
C3080      C3084   1.480       .  S
C3080      C3081   1.407       .  A
C3081      C3082   1.400       .  A
C3081     Br3093   1.919       .  S
C3082      H3085   1.083       .  S
C3084      C3086   1.400       .  A
C3084      C3090   1.407       .  A
C3086      C3087   1.399       .  A
C3086      H3091   1.084       .  S
C3087      C3088   1.418       .  A
C3087     Br3095   1.922       .  S
C3088      C3089   1.407       .  A
C3089      C3090   1.401       .  A
C3089      H3092   1.083       .  S
C3090     Br3096   1.918       .  S
C3097      C3098   1.415       .  A
C3097      C3102   1.409       .  A
C3098      C3099   1.401       .  A
C3098     Br3114   1.919       .  S
C3099      C3100   1.401       .  A
C3099      H3103   1.084       .  S
C3100      C3104   1.477       .  S
C3100      C3101   1.405       .  A
C3101      C3102   1.397       .  A
C3101     Br3113   1.920       .  S
C3102      H3105   1.083       .  S
C3104      C3106   1.401       .  A
C3104      C3110   1.405       .  A
C3106      C3107   1.401       .  A
C3107      C3108   1.416       .  A
C3108      C3109   1.408       .  A
C3109      C3110   1.396       .  A
C3109      H3112   1.083       .  S
C3110     Br3116   1.920       .  S
C3117      C3118   1.419       .  A
C3117      C3122   1.407       .  A
C3118      C3119   1.401       .  A
C3118     Br3134   1.921       .  S
C3119      C3120   1.400       .  A
C3119      H3123   1.084       .  S
C3120      C3124   1.480   1_455  S
C3120      C3121   1.406       .  A
C3121      C3122   1.399       .  A
C3121     Br3133   1.919   1_455  S
C3122      H3125   1.083       .  S
C3124      C3126   1.399       .  A
C3124      C3130   1.407       .  A
C3126      C3127   1.399       .  A
C3126      H3131   1.084       .  S
C3127      C3128   1.419       .  A
C3127     Br3135   1.922       .  S
C3128      C3129   1.408       .  A
C3129      C3130   1.402       .  A
C3129      H3132   1.083       .  S
C3130     Br3136   1.919   1_655  S
C3137      C3138   1.416       .  A
C3137      C3142   1.408       .  A
C3138      C3139   1.400       .  A
C3138     Br3154   1.921       .  S
C3139      C3140   1.402       .  A
C3139      H3143   1.084       .  S
C3140      C3144   1.481       .  S
C3140      C3141   1.407       .  A
C3141      C3142   1.398       .  A
C3141     Br3153   1.919       .  S
C3142      H3145   1.083       .  S
C3144      C3146   1.401       .  A
C3144      C3150   1.408       .  A
C3146      C3147   1.397       .  A
C3146      H3151   1.084       .  S
C3147      C3148   1.413       .  A
C3147     Br3155   1.921       .  S
C3148      C3149   1.407       .  A
C3149      C3150   1.403       .  A
C3149      H3152   1.083       .  S
C3150     Br3156   1.919       .  S
C3157      C3158   1.415       .  A
C3157      C3162   1.408       .  A
C3158      C3159   1.403       .  A
C3158     Br3174   1.919       .  S
C3159      C3160   1.402       .  A
C3159      H3163   1.084       .  S
C3160      C3164   1.481       .  S
C3160      C3161   1.405       .  A
C3161      C3162   1.400       .  A
C3161     Br3173   1.919       .  S
C3162      H3165   1.083       .  S
C3164      C3166   1.400       .  A
C3164      C3170   1.406       .  A
C3166      C3167   1.403       .  A
C3166      H3171   1.084       .  S
C3167      C3168   1.418       .  A
C3167     Br3175   1.922       .  S
C3168      C3169   1.407       .  A
C3169      C3170   1.400       .  A
C3169      H3172   1.083       .  S
C3170     Br3176   1.919       .  S
C3177      C3178   1.420       .  A
C3177      C3182   1.407       .  A
C3178      C3179   1.402       .  A
C3178     Br3194   1.921       .  S
C3179      C3180   1.400       .  A
C3179      H3183   1.084       .  S
C3180      C3184   1.482       .  S
C3180      C3181   1.407       .  A
C3181      C3182   1.399       .  A
C3181     Br3193   1.920       .  S
C3182      H3185   1.083       .  S
C3184      C3186   1.400       .  A
C3184      C3190   1.410       .  A
C3186      C3187   1.397       .  A
C3186      H3191   1.084       .  S
C3187      C3188   1.414       .  A
C3187     Br3195   1.921       .  S
C3188      C3189   1.403       .  A
C3189      C3190   1.403       .  A
C3189      H3192   1.083       .  S
C3190     Br3196   1.917       .  S
C3197      C3198   1.410       .  A
C3197      C3202   1.404       .  A
C3198      C3199   1.404       .  A
C3198     Br3214   1.917       .  S
C3199      C3200   1.405       .  A
C3199      H3203   1.083       .  S
C3200      C3204   1.478       .  S
C3200      C3201   1.406       .  A
C3201      C3202   1.393       .  A
C3202      H3205   1.084       .  S
C3204      C3206   1.404       .  A
C3206      H3211   1.084       .  S
C3207      C3208   1.409       .  A
C3207     Br3215   1.919       .  S
C3208      C3209   1.406       .  A
C3209      C3210   1.398       .  A
C3209      H3212   1.083       .  S
C3210     Br3216   1.918       .  S
C3217      C3218   1.418       .  A
C3217      C3222   1.408       .  A
C3218      C3219   1.397       .  A
C3218     Br3234   1.921       .  S
C3219      C3220   1.398       .  A
C3219      H3223   1.084       .  S
C3220      C3224   1.478       .  S
C3220      C3221   1.408       .  A
C3221      C3222   1.400       .  A
C3221     Br3233   1.920       .  S
C3222      H3225   1.083       .  S
C3224      C3226   1.404       .  A
C3224      C3230   1.406       .  A
C3226      C3227   1.401       .  A
C3226      H3231   1.084       .  S
C3227     Br3235   1.919       .  S
C3228      C3229   1.404       .  A
C3229      H3232   1.084       .  S
C3230     Br3236   1.919       .  S
C3237      C3238   1.412       .  A
C3237      C3242   1.403       .  A
C3238      C3239   1.396       .  A
C3238     Br3254   1.923       .  S
C3239      C3240   1.399       .  A
C3239      H3243   1.084       .  S
C3240      C3244   1.475       .  S
C3240      C3241   1.408       .  A
C3241      C3242   1.402       .  A
C3241     Br3253   1.917       .  S
C3242      H3245   1.083       .  S
C3244      C3246   1.399       .  A
C3244      C3250   1.406       .  A
C3246      C3247   1.401       .  A
C3246      H3251   1.084       .  S
C3247      C3248   1.417       .  A
C3247     Br3255   1.921       .  S
C3248      C3249   1.406       .  A
C3249      C3250   1.398       .  A
C3249      H3252   1.083       .  S
C3250     Br3256   1.920       .  S
C3257      C3258   1.407       .  A
C3257      C3262   1.403       .  A
C3258      C3259   1.402       .  A
C3258     Br3274   1.918       .  S
C3259      C3260   1.407       .  A
C3259      H3263   1.083       .  S
C3260      C3264   1.489       .  S
C3260      C3261   1.412       .  A
C3261      C3262   1.399       .  A
C3262      H3265   1.084       .  S
C3264      C3270   1.411       .  A
C3266      C3267   1.404       .  A
C3266      H3271   1.083       .  S
C3267      C3268   1.410       .  A
C3267     Br3275   1.919       .  S
C3269      C3270   1.397       .  A
C3269      H3272   1.084       .  S
C3270     Br3276   1.922       .  S
C3277      C3278   1.416       .  A
C3277      C3282   1.408       .  A
C3278      C3279   1.399       .  A
C3278     Br3294   1.921       .  S
C3279      C3280   1.402       .  A
C3279      H3283   1.084   1_545  S
C3280      C3284   1.483   1_545  S
C3280      C3281   1.407       .  A
C3281      C3282   1.399       .  A
C3281     Br3293   1.919       .  S
C3282      H3285   1.083       .  S
C3284      C3286   1.403       .  A
C3284      C3290   1.408       .  A
C3286      C3287   1.399       .  A
C3286      H3291   1.084   1_565  S
C3287      C3288   1.415       .  A
C3287     Br3295   1.922       .  S
C3288      C3289   1.407       .  A
C3289      C3290   1.400       .  A
C3289      H3292   1.083       .  S
C3290     Br3296   1.919       .  S
C3297      C3298   1.416       .  A
C3297      C3302   1.408       .  A
C3298      C3299   1.401       .  A
C3298     Br3314   1.920       .  S
C3299      C3300   1.401       .  A
C3299      H3303   1.084       .  S
C3300      C3304   1.474       .  S
C3300      C3301   1.403       .  A
C3301      C3302   1.396       .  A
C3301     Br3313   1.919       .  S
C3302      H3305   1.083       .  S
C3304      C3306   1.398       .  A
C3304      C3310   1.405       .  A
C3306      C3307   1.397       .  A
C3306      H3311   1.084       .  S
C3307      C3308   1.418       .  A
C3307     Br3315   1.923       .  S
C3308      C3309   1.407       .  A
C3309      C3310   1.400       .  A
C3309      H3312   1.083       .  S
C3310     Br3316   1.918       .  S
C3317      C3318   1.408       .  A
C3317      C3322   1.403       .  A
C3318      C3319   1.400       .  A
C3318     Br3334   1.919       .  S
C3319      C3320   1.405       .  A
C3319      H3323   1.084       .  S
C3320      C3324   1.475       .  S
C3320      C3321   1.405       .  A
C3321      C3322   1.394       .  A
C3321     Br3333   1.919       .  S
C3322      H3325   1.084       .  S
C3324      C3326   1.402       .  A
C3324      C3330   1.402       .  A
C3326      C3327   1.399       .  A
C3326      H3331   1.084       .  S
C3327      C3328   1.416       .  A
C3327     Br3335   1.921       .  S
C3328      C3329   1.409       .  A
C3329      C3330   1.396       .  A
C3329      H3332   1.083       .  S
C3330     Br3336   1.919       .  S
C3337      C3338   1.410       .  A
C3337      C3342   1.402       .  A
C3338      C3339   1.398       .  A
C3338     Br3354   1.922       .  S
C3339      C3340   1.403       .  A
C3339      H3343   1.084       .  S
C3340      C3344   1.480       .  S
C3340      C3341   1.409       .  A
C3341      C3342   1.400       .  A
C3341     Br3353   1.918       .  S
C3342      H3345   1.083       .  S
C3344      C3346   1.400       .  A
C3344      C3350   1.409       .  A
C3346      C3347   1.398       .  A
C3346      H3351   1.084       .  S
C3347      C3348   1.415       .  A
C3347     Br3355   1.922       .  S
C3348      C3349   1.404       .  A
C3349      C3350   1.399       .  A
C3349      H3352   1.083       .  S
C3350     Br3356   1.919       .  S
C3357      C3358   1.416   1_556  A
C3357      C3362   1.408       .  A
C3358      C3359   1.402   1_554  A
C3359      C3360   1.403       .  A
C3359      H3363   1.084   1_556  S
C3360      C3364   1.486       .  S
C3360      C3361   1.408       .  A
C3361      C3362   1.398       .  A
C3361     Br3373   1.920       .  S
C3362      H3365   1.083       .  S
C3364      C3366   1.403       .  A
C3364      C3370   1.409       .  A
C3366      C3367   1.400       .  A
C3366      H3371   1.084       .  S
C3367      C3368   1.415       .  A
C3367     Br3375   1.921       .  S
C3368      C3369   1.406       .  A
C3369      C3370   1.401       .  A
C3369      H3372   1.083       .  S
C3370     Br3376   1.919       .  S
C3377      C3378   1.414       .  A
C3377      C3382   1.405       .  A
C3378      C3379   1.401       .  A
C3378     Br3394   1.920       .  S
C3379      C3380   1.400       .  A
C3379      H3383   1.083       .  S
C3380      C3384   1.478       .  S
C3380      C3381   1.407       .  A
C3381      C3382   1.400       .  A
C3381     Br3393   1.919       .  S
C3382      H3385   1.083       .  S
C3384      C3386   1.398       .  A
C3384      C3390   1.408       .  A
C3386      C3387   1.397       .  A
C3386      H3391   1.084       .  S
C3387      C3388   1.417       .  A
C3387     Br3395   1.923       .  S
C3388      C3389   1.405       .  A
C3389      C3390   1.403       .  A
C3389      H3392   1.083       .  S
C3390     Br3396   1.917       .  S
C3397      C3398   1.416       .  A
C3397      C3402   1.403       .  A
C3398      C3399   1.399       .  A
C3398     Br3414   1.922       .  S
C3399      C3400   1.400       .  A
C3399      H3403   1.084       .  S
C3400      C3404   1.477       .  S
C3400      C3401   1.408       .  A
C3401      C3402   1.397       .  A
C3401     Br3413   1.919       .  S
C3402      H3405   1.083       .  S
C3404      C3406   1.401       .  A
C3404      C3410   1.409       .  A
C3406      C3407   1.395       .  A
C3406      H3411   1.084       .  S
C3407      C3408   1.410       .  A
C3407     Br3415   1.922       .  S
C3408      C3409   1.404       .  A
C3409      C3410   1.403       .  A
C3409      H3412   1.083       .  S
C3410     Br3416   1.918       .  S
C3417      C3418   1.415       .  A
C3417      C3422   1.406       .  A
C3418      C3419   1.401       .  A
C3418     Br3434   1.921       .  S
C3419      C3420   1.401       .  A
C3419      H3423   1.084       .  S
C3420      C3424   1.478   1_545  S
C3420      C3421   1.408   1_545  A
C3421      C3422   1.397   1_565  A
C3421     Br3433   1.920       .  S
C3422      H3425   1.083       .  S
C3424      C3426   1.400       .  A
C3424      C3430   1.405       .  A
C3426      C3427   1.398       .  A
C3426      H3431   1.084   1_565  S
C3427      C3428   1.416       .  A
C3427     Br3435   1.921       .  S
C3428      C3429   1.410       .  A
C3429      C3430   1.402       .  A
C3429      H3432   1.083       .  S
C3430     Br3436   1.918       .  S
C3437      C3438   1.417       .  A
C3437      C3442   1.409       .  A
C3438      C3439   1.403       .  A
C3438     Br3454   1.921       .  S
C3439      C3440   1.404       .  A
C3439      H3443   1.084       .  S
C3440      C3444   1.491       .  S
C3440      C3441   1.410       .  A
C3441      C3442   1.402       .  A
C3441     Br3453   1.921       .  S
C3442      H3445   1.083       .  S
C3444      C3446   1.404       .  A
C3444      C3450   1.413       .  A
C3446      C3447   1.401       .  A
C3446      H3451   1.084       .  S
C3447      C3448   1.412       .  A
C3447     Br3455   1.921       .  S
C3448      C3449   1.404       .  A
C3449      C3450   1.403       .  A
C3449      H3452   1.083       .  S
C3450     Br3456   1.919       .  S
C3457      C3458   1.420       .  A
C3457      C3462   1.408       .  A
C3458      C3459   1.402       .  A
C3458     Br3474   1.922       .  S
C3459      C3460   1.399       .  A
C3459      H3463   1.084       .  S
C3460      C3464   1.480   1_655  S
C3460      C3461   1.405       .  A
C3461      C3462   1.401       .  A
C3461     Br3473   1.917   1_655  S
C3462      H3465   1.083       .  S
C3464      C3466   1.402       .  A
C3464      C3470   1.404       .  A
C3466      C3467   1.404       .  A
C3466      H3471   1.084       .  S
C3467      C3468   1.418       .  A
C3467     Br3475   1.921       .  S
C3468      C3469   1.408       .  A
C3469      C3470   1.397       .  A
C3469      H3472   1.083       .  S
C3470     Br3476   1.918       .  S
C3477      C3478   1.413       .  A
C3478      C3479   1.401       .  A
C3478     Br3494   1.920       .  S
C3479      H3483   1.083       .  S
C3480      C3484   1.478       .  S
C3480      C3481   1.409   1_556  A
C3481      C3482   1.397       .  A
C3481     Br3493   1.919       .  S
C3482      H3485   1.084       .  S
C3484      C3486   1.401       .  A
C3484      C3490   1.404       .  A
C3486      C3487   1.401       .  A
C3486      H3491   1.084       .  S
C3487      C3488   1.416       .  A
C3487     Br3495   1.920       .  S
C3488      C3489   1.410       .  A
C3489      C3490   1.398       .  A
C3489      H3492   1.083       .  S
C3490     Br3496   1.919   1_556  S
C3497      C3498   1.409       .  A
C3497      C3502   1.404       .  A
C3498      C3499   1.399       .  A
C3498     Br3514   1.920       .  S
C3499      C3500   1.402       .  A
C3499      H3503   1.084       .  S
C3500      C3504   1.473       .  S
C3500      C3501   1.405       .  A
C3501      C3502   1.398       .  A
C3501     Br3513   1.919       .  S
C3502      H3505   1.084       .  S
C3504      C3506   1.401       .  A
C3504      C3510   1.402       .  A
C3506      C3507   1.399       .  A
C3506      H3511   1.084       .  S
C3507      C3508   1.416       .  A
C3507     Br3515   1.921       .  S
C3508      C3509   1.409       .  A
C3509      C3510   1.397       .  A
C3509      H3512   1.083       .  S
C3510     Br3516   1.918       .  S
C3517      C3518   1.412       .  A
C3518     Br3534   1.922       .  S
C3519      C3520   1.400       .  A
C3520      C3524   1.477       .  S
C3520      C3521   1.409       .  A
C3521      C3522   1.403       .  A
C3521     Br3533   1.919       .  S
C3522      H3525   1.083       .  S
C3524      C3526   1.402       .  A
C3524      C3530   1.403       .  A
C3526      C3527   1.403       .  A
C3526      H3531   1.084       .  S
C3527      C3528   1.418       .  A
C3527     Br3535   1.922       .  S
C3528      C3529   1.408       .  A
C3529      C3530   1.395       .  A
C3529      H3532   1.083       .  S
C3530     Br3536   1.918       .  S
C3537      C3538   1.415       .  A
C3537      C3542   1.408       .  A
C3538      C3539   1.402       .  A
C3538     Br3554   1.919       .  S
C3539      C3540   1.402       .  A
C3539      H3543   1.084       .  S
C3540      C3544   1.479       .  S
C3540      C3541   1.405       .  A
C3541      C3542   1.398       .  A
C3542      H3545   1.083       .  S
C3544      C3546   1.403       .  A
C3544      C3550   1.405       .  A
C3547     Br3555   1.920       .  S
C3548      C3549   1.408       .  A
C3549      C3550   1.397       .  A
C3549      H3552   1.083       .  S
C3550     Br3556   1.919       .  S
C3557      C3558   1.415       .  A
C3557      C3562   1.409       .  A
C3558      C3559   1.400       .  A
C3558     Br3574   1.920       .  S
C3559      C3560   1.402       .  A
C3559      H3563   1.084       .  S
C3560      C3564   1.478       .  S
C3560      C3561   1.404       .  A
C3561      C3562   1.398       .  A
C3561     Br3573   1.918       .  S
C3562      H3565   1.083       .  S
C3564      C3566   1.403       .  A
C3564      C3570   1.405       .  A
C3566      C3567   1.402       .  A
C3566      H3571   1.083       .  S
C3567      C3568   1.412       .  A
C3567     Br3575   1.919       .  S
C3568      C3569   1.406       .  A
C3569      C3570   1.396       .  A
C3569      H3572   1.084       .  S
C3570     Br3576   1.919       .  S
C3577      C3578   1.418       .  A
C3578      C3579   1.398       .  A
C3578     Br3594   1.923       .  S
C3579      H3583   1.084       .  S
C3580      C3584   1.480       .  S
C3580      C3581   1.408       .  A
C3581      C3582   1.398   1_556  A
C3581     Br3593   1.919       .  S
C3582      H3585   1.083       .  S
C3584      C3586   1.403       .  A
C3584      C3590   1.410       .  A
C3586      C3587   1.397       .  A
C3586      H3591   1.084       .  S
C3587      C3588   1.408       .  A
C3587     Br3595   1.919       .  S
C3588      C3589   1.402       .  A
C3589      C3590   1.401       .  A
C3589      H3592   1.083       .  S
C3590     Br3596   1.919       .  S
C3597      C3598   1.417       .  A
C3597      C3602   1.408       .  A
C3598      C3599   1.401       .  A
C3598     Br3614   1.922       .  S
C3599      C3600   1.402       .  A
C3599      H3603   1.084       .  S
C3600      C3604   1.481       .  S
C3600      C3601   1.405       .  A
C3601      C3602   1.398       .  A
C3601     Br3613   1.918       .  S
C3602      H3605   1.083       .  S
C3604      C3606   1.402       .  A
C3604      C3610   1.406       .  A
C3606      C3607   1.400       .  A
C3606      H3611   1.084       .  S
C3607      C3608   1.416       .  A
C3607     Br3615   1.921       .  S
C3608      C3609   1.408       .  A
C3609      C3610   1.401       .  A
C3609      H3612   1.083       .  S
C3610     Br3616   1.919       .  S
C3617      C3618   1.411       .  A
C3617      C3622   1.405       .  A
C3618      C3619   1.399       .  A
C3618     Br3634   1.921       .  S
C3619      C3620   1.404       .  A
C3619      H3623   1.084       .  S
C3620      C3624   1.490       .  S
C3620      C3621   1.412       .  A
C3621      C3622   1.404       .  A
C3622      H3625   1.083       .  S
C3624      C3626   1.405       .  A
C3624      C3630   1.409       .  A
C3627     Br3635   1.918       .  S
C3628      C3629   1.408       .  A
C3629      C3630   1.400       .  A
C3629      H3632   1.083       .  S
C3630     Br3636   1.920       .  S
C3637      C3638   1.416       .  A
C3637      C3642   1.407       .  A
C3638      C3639   1.403       .  A
C3638     Br3654   1.921       .  S
C3639      C3640   1.402       .  A
C3639      H3643   1.084       .  S
C3640      C3644   1.478       .  S
C3640      C3641   1.404       .  A
C3641      C3642   1.396       .  A
C3641     Br3653   1.919       .  S
C3642      H3645   1.083       .  S
C3644      C3646   1.398       .  A
C3644      C3650   1.406       .  A
C3646      C3647   1.398       .  A
C3646      H3651   1.084       .  S
C3647      C3648   1.419       .  A
C3647     Br3655   1.922       .  S
C3648      C3649   1.409       .  A
C3649      C3650   1.402       .  A
C3649      H3652   1.083       .  S
C3650     Br3656   1.918       .  S
C3657      C3658   1.417       .  A
C3657      C3662   1.409       .  A
C3658      C3659   1.402       .  A
C3658     Br3674   1.920       .  S
C3659      C3660   1.401       .  A
C3659      H3663   1.084       .  S
C3660      C3664   1.481       .  S
C3660      C3661   1.406       .  A
C3661      C3662   1.399       .  A
C3661     Br3673   1.920       .  S
C3662      H3665   1.083       .  S
C3664      C3666   1.403       .  A
C3664      C3670   1.408       .  A
C3666      C3667   1.403       .  A
C3666      H3671   1.083       .  S
C3667      C3668   1.413       .  A
C3667     Br3675   1.919       .  S
C3668      C3669   1.405       .  A
C3669      C3670   1.396       .  A
C3669      H3672   1.084       .  S
C3670     Br3676   1.921       .  S
C3677      C3678   1.416       .  A
C3677      C3682   1.407       .  A
C3678      C3679   1.407       .  A
C3678     Br3694   1.919       .  S
C3679      C3680   1.405       .  A
C3679      H3683   1.083       .  S
C3680      C3684   1.486       .  S
C3680      C3681   1.405       .  A
C3681      C3682   1.399       .  A
C3681     Br3693   1.918       .  S
C3682      H3685   1.083       .  S
C3684      C3686   1.403       .  A
C3684      C3690   1.405       .  A
C3686      C3687   1.405       .  A
C3686      H3691   1.084       .  S
C3687      C3688   1.418       .  A
C3687     Br3695   1.920       .  S
C3688      C3689   1.410       .  A
C3689      C3690   1.402       .  A
C3689      H3692   1.083       .  S
C3690     Br3696   1.919       .  S
C3697      C3698   1.418       .  A
C3697      C3702   1.407       .  A
C3698     Br3714   1.922       .  S
C3699      C3700   1.400       .  A
C3699      H3703   1.084       .  S
C3700      C3704   1.483       .  S
C3700      C3701   1.409       .  A
C3701     Br3713   1.919       .  S
C3702      H3705   1.083       .  S
C3704      C3706   1.402       .  A
C3704      C3710   1.411       .  A
C3706      C3707   1.400       .  A
C3706      H3711   1.083       .  S
C3707      C3708   1.412       .  A
C3707     Br3715   1.921       .  S
C3708      C3709   1.401       .  A
C3709      C3710   1.400       .  A
C3709      H3712   1.084       .  S
C3717      C3718   1.411       .  A
C3717      C3722   1.406       .  A
C3718      C3719   1.401       .  A
C3718     Br3734   1.919       .  S
C3719      C3720   1.402       .  A
C3719      H3723   1.083       .  S
C3720      C3724   1.479       .  S
C3720      C3721   1.407       .  A
C3721      C3722   1.400       .  A
C3721     Br3733   1.919       .  S
C3722      H3725   1.083       .  S
C3724      C3726   1.403       .  A
C3724      C3730   1.403       .  A
C3726      C3727   1.405       .  A
C3726      H3731   1.083       .  S
C3727      C3728   1.415       .  A
C3727     Br3735   1.920       .  S
C3728      C3729   1.408       .  A
C3729      C3730   1.396       .  A
C3729      H3732   1.083       .  S
C3730     Br3736   1.918       .  S
C3737      C3738   1.416       .  A
C3737      C3742   1.408       .  A
C3738      C3739   1.403       .  A
C3738     Br3754   1.920       .  S
C3739      C3740   1.403       .  A
C3739      H3743   1.083       .  S
C3740      C3744   1.480   1_565  S
C3740      C3741   1.404       .  A
C3741      C3742   1.397       .  A
C3741     Br3753   1.918       .  S
C3742      H3745   1.083       .  S
C3744      C3746   1.402       .  A
C3744      C3750   1.404       .  A
C3746      C3747   1.404       .  A
C3746      H3751   1.084       .  S
C3747      C3748   1.418       .  A
C3747     Br3755   1.921       .  S
C3748      C3749   1.408       .  A
C3749      C3750   1.398       .  A
C3749      H3752   1.083       .  S
C3750     Br3756   1.918       .  S
C3757      C3758   1.409       .  A
C3758      C3759   1.394       .  A
C3758     Br3774   1.921       .  S
C3759      C3760   1.400       .  A
C3759      H3763   1.084       .  S
C3760      C3764   1.471       .  S
C3760      C3761   1.408       .  A
C3761     Br3773   1.918       .  S
C3762      H3765   1.084   1_554  S
C3764      C3766   1.402       .  A
C3764      C3770   1.405       .  A
C3766      C3767   1.399       .  A
C3766      H3771   1.084       .  S
C3767      C3768   1.412       .  A
C3767     Br3775   1.920       .  S
C3768      C3769   1.406       .  A
C3769      C3770   1.394       .  A
C3769      H3772   1.083       .  S
C3770     Br3776   1.920       .  S
C3777      C3778   1.412       .  A
C3777      C3782   1.403       .  A
C3778      C3779   1.403       .  A
C3778     Br3794   1.919       .  S
C3779      C3780   1.404       .  A
C3779      H3783   1.083       .  S
C3780      C3784   1.474       .  S
C3780      C3781   1.406       .  A
C3781      C3782   1.390       .  A
C3781     Br3793   1.921       .  S
C3782      H3785   1.084       .  S
C3784      C3786   1.403       .  A
C3784      C3790   1.405       .  A
C3786      C3787   1.398       .  A
C3786      H3791   1.084       .  S
C3787      C3788   1.409       .  A
C3787     Br3795   1.919       .  S
C3788      C3789   1.406       .  A
C3789      C3790   1.398       .  A
C3789      H3792   1.084       .  S
C3790     Br3796   1.919       .  S
C3797      C3802   1.405       .  A
C3798      C3799   1.402       .  A
C3798     Br3814   1.919       .  S
C3799      C3800   1.402       .  A
C3799      H3803   1.083       .  S
C3800      C3804   1.480       .  S
C3800      C3801   1.408       .  A
C3802      H3805   1.084       .  S
C3804      C3806   1.401       .  A
C3804      C3810   1.406       .  A
C3806      C3807   1.401       .  A
C3806      H3811   1.084       .  S
C3807      C3808   1.418       .  A
C3807     Br3815   1.921       .  S
C3808      C3809   1.407       .  A
C3809      C3810   1.399       .  A
C3809      H3812   1.083       .  S
C3810     Br3816   1.918       .  S
