geometry optimzed in LAMMPS
_audit_creation_date              2020-12-01 
_audit_creation_method            'lammps2cif' 
_symmetry_space_group_name_H-M    'P1' 
_symmetry_Int_Tables_number       1 
_symmetry_cell_setting            triclinic 
loop_ 
_symmetry_equiv_pos_as_xyz 
  x,y,z 
_cell_length_a                    22.96901846 
_cell_length_b                    24.695441297502043 
_cell_length_c                    23.752518878515886 
_cell_angle_alpha                 90.1628187819448 
_cell_angle_beta                  92.55411495092368 
_cell_angle_gamma                 89.17507961179929 
loop_ 
_atom_site_label 
_atom_site_type_symbol 
_atom_site_fract_x 
_atom_site_fract_y 
_atom_site_fract_z 
_atom_site_charge 
C1          C  0.27993620  0.27151080  0.28991762     0.30500
C2          C  0.21133924  0.22573225  0.20757894     0.30500
C3          C  0.31223641  0.25810289  0.23476220    -0.05700
C4          C  0.25218332  0.21716958  0.30399893    -0.06500
C5          C  0.22689547  0.30669733  0.26772959    -0.06400
C6          C  0.27611443  0.23338135  0.19454361    -0.05700
C7          C  0.21532853  0.19416359  0.26379506    -0.06500
C8          C  0.19120383  0.28263513  0.22653165    -0.06400
C9          C  0.30820478  0.22092942  0.14856456    -0.31800
N10         N  0.36250802  0.24074303  0.15563206     0.14700
C11         C  0.36589395  0.26378612  0.20844716    -0.31800
H12         H  0.40360617  0.28505850  0.22522806     0.16700
C13         C  0.19110536  0.14955173  0.28972341    -0.30800
N14         N  0.21486200  0.14474799  0.34341548     0.13400
C15         C  0.25295778  0.18537609  0.35146330    -0.30800
C16         C  0.14160245  0.31526123  0.21978215    -0.31100
N17         N  0.14780036  0.36039218  0.25249490     0.13900
H18         H  0.10289022  0.30614416  0.19408424     0.16600
C19         C  0.19986399  0.35544927  0.28200600    -0.31100
H20         H  0.21567732  0.38411677  0.31344647     0.16600
H21         H  0.27925428  0.19164355  0.38981704     0.16600
H22         H  0.29255046  0.19973225  0.11119249     0.16600
H23         H  0.15849030  0.12288616  0.27121311     0.16600
N24         N  0.99725467  0.41939363  0.25995435    -0.36200
N25         N  0.08671094  0.50278360  0.25668137    -0.56700
N26         N  0.99341282  0.58504204  0.25567905    -0.36200
N27         N  0.90344605  0.50169556  0.26846643    -0.56700
C28         C  0.04704253  0.39017118  0.27165486     0.27400
C29         C  0.95184256  0.38940795  0.27649224     0.27400
C30         C  0.04201030  0.61533169  0.26535157     0.27400
C31         C  0.94700975  0.61468996  0.27290005     0.27400
C32         C  0.12055071  0.45841516  0.24723491     0.36000
C33         C  0.11844203  0.54679463  0.24413761     0.36000
C34         C  0.87075271  0.45651727  0.25843338     0.36000
C35         C  0.86862611  0.54626348  0.25794295     0.36000
C36         C  0.03322048  0.34191816  0.29698724    -0.21400
C37         C  0.97356211  0.34171614  0.30067342    -0.21400
C38         C  0.02650679  0.66397982  0.28992940    -0.21400
C39         C  0.96710258  0.66322843  0.29547316    -0.21400
C40         C  0.17412193  0.47438883  0.22897936    -0.22500
C41         C  0.17279779  0.53024734  0.22705501    -0.22500
C42         C  0.81467220  0.47282451  0.24152137    -0.22500
C43         C  0.81329064  0.52907044  0.24137069    -0.22500
C44         C  0.10448912  0.40389383  0.25713194    -0.17800
C45         C  0.89120473  0.40118687  0.26550239    -0.17800
C46         C  0.88659327  0.60187735  0.26382678    -0.17800
C47         C  0.09992633  0.60165777  0.25074715    -0.17800
H48         H  0.06310161  0.31004280  0.31132808     0.15100
H49         H  0.94893027  0.30964155  0.31879882     0.15100
H50         H  0.05515875  0.69651649  0.30309149     0.15100
H51         H  0.94151667  0.69511028  0.31405354     0.15100
H52         H  0.21040502  0.44861594  0.21801777     0.13400
H53         H  0.20788149  0.55566142  0.21441598     0.13300
H54         H  0.77859611  0.44712491  0.22926555     0.13400
H55         H  0.77596197  0.55419806  0.22907605     0.13300
H56         H  0.99384234  0.45452828  0.23570665     0.26600
H57         H  0.99118779  0.54909948  0.23256496     0.26600
C58         C  0.79950763  0.79542480  0.23283636     0.30500
C59         C  0.71413133  0.74213544  0.28401611     0.30500
C60         C  0.81096828  0.73365603  0.24390718    -0.05700
C61         C  0.78266713  0.81780195  0.29084742    -0.06500
C62         C  0.73952507  0.79460805  0.19790905    -0.06400
C63         C  0.76877898  0.70653189  0.27196773    -0.05700
C64         C  0.74015582  0.79067988  0.31805470    -0.06500
C65         C  0.69743948  0.76735137  0.22614403    -0.06400
C66         C  0.79104381  0.65388033  0.28227108    -0.31800
N67         N  0.84428436  0.64768581  0.25879338     0.14700
C68         C  0.85512706  0.69620780  0.23395297    -0.31800
H69         H  0.89398213  0.70461581  0.21153887     0.16700
C70         C  0.73400519  0.81777059  0.36951218    -0.30800
N71         N  0.76959024  0.86165648  0.37232124     0.13400
C72         C  0.79971170  0.86148490  0.32437981    -0.30800
C73         C  0.64725446  0.76543925  0.19260152    -0.31100
N74         N  0.65443323  0.79044629  0.14320017     0.13900
H75         H  0.60759480  0.74551312  0.20292975     0.16600
C76         C  0.71140742  0.80796757  0.14504808    -0.31100
H77         H  0.73130341  0.82770854  0.11033149     0.16600
H78         H  0.83155446  0.89143397  0.31427052     0.16600
H79         H  0.77068254  0.62321026  0.30683541     0.16600
H80         H  0.70572946  0.80671588  0.40269338     0.16600
N81         N  0.19259647  0.00541595  0.39918805    -0.36200
N82         N  0.20426071  0.92123008  0.48650565    -0.56700
N83         N  0.21875197  0.00340116  0.57389971    -0.36200
N84         N  0.21614100  0.08714438  0.48783934    -0.56700
C85         C  0.20315715  0.96045312  0.36821780     0.27400
C86         C  0.20978999  0.04833087  0.36897168     0.27400
C87         C  0.23211672  0.95786574  0.60410091     0.27400
C88         C  0.23744080  0.04659129  0.60501835     0.27400
C89         C  0.18546813  0.89166799  0.44119522     0.36000
C90         C  0.19950362  0.88938189  0.53258344     0.36000
C91         C  0.20140370  0.11899170  0.44278695     0.36000
C92         C  0.21378824  0.11904667  0.53444209     0.36000
C93         C  0.22728427  0.97497874  0.31811184    -0.21400
C94         C  0.23147314  0.03042563  0.31857578    -0.21400
C95         C  0.25959700  0.97236073  0.65493819    -0.21400
C96         C  0.26299382  0.02814878  0.65549670    -0.21400
C97         C  0.16845096  0.84102226  0.45875419    -0.22500
C98         C  0.17744155  0.83954892  0.51649022    -0.22500
C99         C  0.18914647  0.17112841  0.46102621    -0.22500
C100        C  0.19692098  0.17115755  0.51884262    -0.22500
C101        C  0.19162751  0.90663030  0.38389085    -0.17800
C102        C  0.20564169  0.10328414  0.38525807    -0.17800
C103        C  0.22908727  0.10232465  0.59059547    -0.17800
C104        C  0.21718738  0.90379590  0.58870209    -0.17800
H105        H  0.24191407  0.94846749  0.28514992     0.15100
H106        H  0.24982372  0.05448131  0.28594961     0.15100
H107        H  0.27534289  0.94552456  0.68838408     0.15100
H108        H  0.28198030  0.05237494  0.68942493     0.15100
H109        H  0.15266524  0.80802418  0.43244706     0.13400
H110        H  0.16928115  0.80546938  0.54342522     0.13300
H111        H  0.17650884  0.20581007  0.43528910     0.13400
H112        H  0.19073930  0.20575310  0.54606967     0.13300
H113        H  0.17106817  0.00703382  0.43688294     0.26600
H114        H  0.19253055  0.00529451  0.53713731     0.26600
N115        N  0.77949326  0.00243447  0.43329841    -0.36200
N116        N  0.78258551  0.91916354  0.51962199    -0.56700
N117        N  0.79902797  0.00244234  0.60879879    -0.36200
N118        N  0.78629468  0.08585235  0.52112511    -0.56700
C119        C  0.76415742  0.95848578  0.40154179     0.27400
C120        C  0.76549854  0.04749011  0.40251848     0.27400
C121        C  0.78354943  0.95869162  0.63881031     0.27400
C122        C  0.78591254  0.04706865  0.63955156     0.27400
C123        C  0.78691889  0.88693271  0.47338687     0.36000
C124        C  0.79648767  0.88786966  0.56532125     0.36000
C125        C  0.79140681  0.11760231  0.47505001     0.36000
C126        C  0.80148364  0.11666811  0.56671093     0.36000
C127        C  0.74020709  0.97600212  0.35005116    -0.21400
C128        C  0.74104537  0.03190288  0.35066571    -0.21400
C129        C  0.76041576  0.97578902  0.68886092    -0.21400
C130        C  0.76203279  0.03143298  0.68938281    -0.21400
C131        C  0.80393355  0.83515705  0.48983721    -0.22500
C132        C  0.81015188  0.83577049  0.54779095    -0.22500
C133        C  0.81014509  0.16852884  0.49144569    -0.22500
C134        C  0.81671681  0.16789424  0.54930330    -0.22500
C135        C  0.77349642  0.90295411  0.41664738    -0.17800
C136        C  0.77696394  0.10223770  0.41848113    -0.17800
C137        C  0.79476146  0.10157394  0.62387255    -0.17800
C138        C  0.79015730  0.90371176  0.62264870    -0.17800
H139        H  0.72368399  0.95113415  0.31549355     0.15100
H140        H  0.72538573  0.05807935  0.31662391     0.15100
H141        H  0.74240235  0.95103425  0.72105637     0.15100
H142        H  0.74562619  0.05731016  0.72205243     0.15100
H143        H  0.81107697  0.80044655  0.46298503     0.13400
H144        H  0.82253041  0.80142871  0.57410372     0.13300
H145        H  0.81805884  0.20273343  0.46460586     0.13400
H146        H  0.83019680  0.20171008  0.57563347     0.13300
H147        H  0.80376115  0.00168625  0.47123128     0.26600
H148        H  0.82101748  0.00168663  0.57138321     0.26600
C149        C  0.18262511  0.80042451  0.77161194     0.30500
C150        C  0.26917314  0.74321897  0.72360960     0.30500
C151        C  0.17059840  0.73878636  0.76032785    -0.05700
C152        C  0.20196315  0.82112351  0.71405960    -0.06500
C153        C  0.24155429  0.79763781  0.80835332    -0.06400
C154        C  0.21373082  0.70999741  0.73375052    -0.05700
C155        C  0.24502568  0.79200486  0.68859260    -0.06500
C156        C  0.28409489  0.76806319  0.78179104    -0.06400
C157        C  0.19190343  0.65815031  0.72238525    -0.31800
N158        N  0.13817871  0.65325740  0.74442155     0.14700
C159        C  0.12622422  0.70229986  0.76895679    -0.31800
H160        H  0.08681838  0.71169788  0.79055544     0.16700
C161        C  0.25361748  0.81769954  0.63720076    -0.30800
N162        N  0.21843905  0.86262110  0.63265380     0.13400
C163        C  0.18660731  0.86465604  0.67938251    -0.30800
C164        C  0.33333243  0.76470193  0.81650224    -0.31100
N165        N  0.32531031  0.79156164  0.86490535     0.13900
H166        H  0.37308784  0.74306090  0.80744123     0.16600
C167        C  0.26866025  0.81138189  0.86143383    -0.31100
H168        H  0.24846808  0.83333243  0.89499901     0.16600
H169        H  0.15494383  0.89617461  0.68789861     0.16600
H170        H  0.21297283  0.62702134  0.69809928     0.16600
H171        H  0.28371612  0.80527332  0.60570890     0.16600
N172        N  0.08514702  0.50672019  0.72972760    -0.36200
N173        N  0.99255697  0.58915623  0.74835323    -0.56700
N174        N  0.90391393  0.50483067  0.75311418    -0.36200
N175        N  0.99616274  0.42229596  0.74545279    -0.56700
C176        C  0.11729372  0.55167055  0.74293007     0.27400
C177        C  0.11912902  0.46143652  0.73959071     0.27400
C178        C  0.87216819  0.54911845  0.76778441     0.27400
C179        C  0.87444109  0.46007543  0.76797572     0.27400
C180        C  0.03662182  0.62009614  0.73062204     0.36000
C181        C  0.94272021  0.61927976  0.74101611     0.36000
C182        C  0.04089233  0.39273166  0.72493933     0.36000
C183        C  0.94780060  0.39117317  0.73962839     0.36000
C184        C  0.17275376  0.53438720  0.76094482    -0.21400
C185        C  0.17392349  0.47807638  0.75877236    -0.21400
C186        C  0.82152190  0.53228150  0.79163055    -0.21400
C187        C  0.82296617  0.47622248  0.79178072    -0.21400
C188        C  0.01405249  0.66908294  0.71044467    -0.22500
C189        C  0.95504095  0.66887300  0.71776828    -0.22500
C190        C  0.01995700  0.34362878  0.70453973    -0.22500
C191        C  0.96162457  0.34222769  0.71486619    -0.22500
C192        C  0.09737587  0.60747011  0.73845807    -0.17800
C193        C  0.10133040  0.40588502  0.73162590    -0.17800
C194        C  0.89140029  0.40521611  0.75784545    -0.17800
C195        C  0.88646478  0.60413650  0.75765992    -0.17800
H196        H  0.20847876  0.55945210  0.77574719     0.15100
H197        H  0.21067943  0.45247447  0.77161886     0.15100
H198        H  0.78698760  0.55771781  0.80720574     0.15100
H199        H  0.78972103  0.45032546  0.80743512     0.15100
H200        H  0.03766798  0.70185874  0.69238442     0.13400
H201        H  0.92459106  0.70140459  0.70674751     0.13300
H202        H  0.04438331  0.31154140  0.68487637     0.13400
H203        H  0.93251105  0.30922911  0.70448880     0.13300
H204        H  0.04300652  0.50696503  0.71164808     0.26600
H205        H  0.94089381  0.50520628  0.72948556     0.26600
C206        C  0.72224817  0.27331777  0.71919659     0.30500
C207        C  0.78916219  0.22494479  0.80215805     0.30500
C208        C  0.77349169  0.30760101  0.74420960    -0.05700
C209        C  0.68831359  0.25935097  0.77294812    -0.06500
C210        C  0.75144605  0.21899077  0.70447527    -0.06400
C211        C  0.80860848  0.28264352  0.78578943    -0.05700
C212        C  0.72380819  0.23351340  0.81345806    -0.06500
C213        C  0.78749542  0.19463718  0.74494055    -0.06400
C214        C  0.85612697  0.31646683  0.79586111    -0.31800
N215        N  0.84908232  0.36219232  0.76383212     0.14700
C216        C  0.79831403  0.35719493  0.73271626    -0.31800
H217        H  0.78229086  0.38632918  0.70157459     0.13300
C218        C  0.69119991  0.22227015  0.85892197    -0.30800
N219        N  0.63705577  0.24348519  0.85156838     0.13400
C220        C  0.63419214  0.26644219  0.79866943    -0.30800
C221        C  0.81090504  0.14867337  0.71903290    -0.31100
N222        N  0.78707116  0.14425825  0.66539363     0.13900
H223        H  0.84252401  0.12043776  0.73776883     0.16600
C224        C  0.75031537  0.18687756  0.65699051    -0.31100
H225        H  0.72414956  0.19393229  0.61860773     0.16600
H226        H  0.59663599  0.28854980  0.78134669     0.16600
H227        H  0.89435154  0.30746653  0.82265973     0.16600
H228        H  0.70642285  0.20098130  0.89637756     0.16600
N229        N  0.47996690  0.78032171  0.91758807    -0.36200
N230        N  0.39956520  0.78472236  0.01054537    -0.56700
N231        N  0.49951028  0.77854967  0.09062737    -0.36200
N232        N  0.57983779  0.78495984  0.99749068    -0.56700
C233        C  0.43080318  0.80184953  0.89189299     0.27400
C234        C  0.52486898  0.78722722  0.88283964     0.27400
C235        C  0.45417369  0.78554493  0.12525064     0.27400
C236        C  0.54806092  0.79994167  0.11658913     0.27400
C237        C  0.36191318  0.77787836  0.96521134     0.36000
C238        C  0.37493127  0.76206623  0.05572149     0.36000
C239        C  0.60501393  0.76293743  0.95175853     0.36000
C240        C  0.61780408  0.77744356  0.04263432     0.36000
C241        C  0.44555930  0.82389592  0.84069370    -0.21400
C242        C  0.50444411  0.81394458  0.83467241    -0.21400
C243        C  0.47376277  0.81208598  0.17363989    -0.21400
C244        C  0.53238700  0.82200874  0.16781852    -0.21400
C245        C  0.31331731  0.75058732  0.98136263    -0.22500
C246        C  0.32206570  0.73949337  0.03805086    -0.22500
C247        C  0.65868112  0.74028618  0.96882100    -0.22500
C248        C  0.66721535  0.75048607  0.02573049    -0.22500
C249        C  0.37214531  0.79432980  0.90912652    -0.17800
C250        C  0.58354026  0.76951114  0.89420158    -0.17800
C251        C  0.60709508  0.79282176  0.09918798    -0.17800
C252        C  0.39572252  0.76852598  0.11339700    -0.17800
H253        H  0.41638423  0.84346209  0.80975360     0.15100
H254        H  0.52932496  0.82541528  0.79907093     0.15100
H255        H  0.44839590  0.82382179  0.20910889     0.15100
H256        H  0.56074576  0.84187076  0.19881285     0.15100
H257        H  0.27624233  0.73843431  0.95483861     0.13400
H258        H  0.29208096  0.71805455  0.06354831     0.13300
H259        H  0.68921064  0.71917126  0.94283176     0.13400
H260        H  0.70465471  0.73772783  0.05187776     0.13300
H261        H  0.48195438  0.75657064  0.95380090     0.26600
H262        H  0.49830279  0.75511344  0.05406956     0.26600
N263        N  0.49013380  0.23441565  0.91678052    -0.36200
N264        N  0.59040472  0.22341467  0.99847451    -0.56700
N265        N  0.50921952  0.22780876  0.08957552    -0.36200
N266        N  0.40903664  0.22765932  0.00755630    -0.56700
C267        C  0.53584973  0.22680856  0.88292580     0.27400
C268        C  0.44124784  0.21567069  0.88897868     0.27400
C269        C  0.55789537  0.20618770  0.11638100     0.27400
C270        C  0.46334571  0.22094210  0.12316104     0.27400
C271        C  0.61549913  0.24655307  0.95386163     0.36000
C272        C  0.62816100  0.22892198  0.04400191     0.36000
C273        C  0.37140535  0.23730553  0.96262588     0.36000
C274        C  0.38383496  0.24808548  0.05387893     0.36000
C275        C  0.51620810  0.20248906  0.83323957    -0.21400
C276        C  0.45703152  0.19467092  0.83737609    -0.21400
C277        C  0.54182088  0.18424963  0.16716366    -0.21400
C278        C  0.48272197  0.19422434  0.17174235    -0.21400
C279        C  0.66889382  0.26777161  0.97200356    -0.22500
C280        C  0.67738305  0.25556531  0.02842597    -0.22500
C281        C  0.32218983  0.26405090  0.98025511    -0.22500
C282        C  0.33045267  0.27179515  0.03759537    -0.22500
C283        C  0.59455203  0.24203518  0.89605175    -0.17800
C284        C  0.38222830  0.22356148  0.90577826    -0.17800
C285        C  0.40481594  0.23924363  0.11101965    -0.17800
C286        C  0.61714658  0.21257948  0.09993996    -0.17800
H287        H  0.54183979  0.19093171  0.79789642     0.15100
H288        H  0.42855469  0.17669924  0.80519072     0.15100
H289        H  0.57014620  0.16443870  0.19864371     0.15100
H290        H  0.45698905  0.18276434  0.20675432     0.15100
H291        H  0.69927908  0.28926767  0.94700258     0.13400
H292        H  0.71457701  0.26689699  0.05521431     0.13300
H293        H  0.28497772  0.27792075  0.95440957     0.13400
H294        H  0.29996874  0.29203142  0.06432507     0.13300
H295        H  0.49174327  0.25671514  0.95410314     0.26600
H296        H  0.50799552  0.25154782  0.05337889     0.26600
C297        C  0.71349639  0.73587932  0.71793170     0.30500
C298        C  0.77838101  0.78354627  0.80145139     0.30500
C299        C  0.76435122  0.70047692  0.74397368    -0.05700
C300        C  0.74276521  0.78958972  0.70353265    -0.06500
C301        C  0.67816401  0.75134332  0.77084755    -0.06400
C302        C  0.79849205  0.72541838  0.78584433    -0.05700
C303        C  0.77818650  0.81317569  0.74431099    -0.06500
C304        C  0.71277853  0.77664418  0.81173868    -0.06400
C305        C  0.84731758  0.69219371  0.79576816    -0.31800
N306        N  0.84203784  0.64641034  0.76372274     0.14700
C307        C  0.79082838  0.65077883  0.73283019    -0.31800
H308        H  0.77588783  0.62147846  0.70166596     0.16700
C309        C  0.80351640  0.85732203  0.71839284    -0.30800
N310        N  0.78102830  0.86187694  0.66424435     0.13400
C311        C  0.74317366  0.82113627  0.65577809    -0.30800
C312        C  0.67947321  0.78848202  0.85692027    -0.31100
N313        N  0.62560053  0.76825470  0.84906887     0.13900
H314        H  0.69416720  0.80905464  0.89485401     0.16600
C315        C  0.62347333  0.74565573  0.79573881    -0.31100
H316        H  0.58616026  0.72477067  0.77728465     0.16600
H317        H  0.71733630  0.81502438  0.61712370     0.16600
H318        H  0.88525614  0.70174390  0.82240605     0.16600
H319        H  0.83545020  0.88429297  0.73750530     0.16600
C320        C  0.80867271  0.20669847  0.23590396     0.30500
C321        C  0.72199912  0.26329587  0.28489161     0.30500
C322        C  0.82011504  0.26846023  0.24689153    -0.05700
C323        C  0.74896741  0.20875670  0.19996296    -0.06500
C324        C  0.79023615  0.18598213  0.29370812    -0.06400
C325        C  0.77692594  0.29693104  0.27366264    -0.05700
C326        C  0.70634282  0.23773813  0.22718905    -0.06500
C327        C  0.74710337  0.21468538  0.31977843    -0.06400
C328        C  0.79770060  0.34943463  0.28355500    -0.31800
N329        N  0.85109759  0.35478824  0.26092102     0.14700
C330        C  0.86387294  0.30547004  0.23742427    -0.31800
H331        H  0.90344712  0.29637988  0.21595902     0.16700
C332        C  0.65632570  0.24010114  0.19338041    -0.30800
N333        N  0.66403114  0.21396439  0.14447958     0.13400
C334        C  0.72112024  0.19493676  0.14715623    -0.30800
C335        C  0.73958784  0.18847946  0.37113163    -0.31100
N336        N  0.77486291  0.14359167  0.37471898     0.13900
H337        H  0.71073665  0.20066234  0.40375189     0.16600
C338        C  0.80627562  0.14226006  0.32776675    -0.31100
H339        H  0.83806115  0.11103443  0.31864326     0.16600
H340        H  0.74131946  0.17367461  0.11311948     0.16600
H341        H  0.77602213  0.38076916  0.30706974     0.16600
H342        H  0.61642913  0.26108836  0.20321293     0.16600
C343        C  0.19348247  0.21600780  0.76801223     0.30500
C344        C  0.27868035  0.27008678  0.71732547     0.30500
C345        C  0.25160222  0.22171493  0.80521845    -0.05700
C346        C  0.21559026  0.18956940  0.71374293    -0.06500
C347        C  0.17919162  0.27552096  0.75103508    -0.06400
C348        C  0.29357534  0.24956494  0.77762358    -0.05700
C349        C  0.25721307  0.21791554  0.68605829    -0.06500
C350        C  0.22143045  0.30346973  0.72410016    -0.06400
C351        C  0.34281782  0.25305946  0.81250965    -0.31800
N352        N  0.33520370  0.22744750  0.86157687     0.14700
C353        C  0.27894916  0.20816029  0.85826168    -0.31800
H354        H  0.25958406  0.18529559  0.89122778     0.16700
C355        C  0.26609033  0.18925205  0.63612036    -0.30800
N356        N  0.23424082  0.14296039  0.63532051     0.13400
C357        C  0.20479798  0.14232392  0.68354862    -0.30800
C358        C  0.19792936  0.35556736  0.71320614    -0.31100
N359        N  0.14382336  0.36027477  0.73522902     0.13900
H360        H  0.21861608  0.38729675  0.69038776     0.16600
C361        C  0.13358470  0.31139496  0.75946458    -0.31100
H362        H  0.09511298  0.30207017  0.78207447     0.16600
H363        H  0.17605692  0.11020061  0.69501065     0.16600
H364        H  0.38267775  0.27291257  0.80264593     0.16600
H365        H  0.29272048  0.20146931  0.60208335     0.16600
C366        C  0.26682672  0.73642190  0.28972678     0.30500
C367        C  0.19952157  0.78287367  0.20622897     0.30500
C368        C  0.21680636  0.70080571  0.26468147    -0.05700
C369        C  0.23656346  0.79040897  0.30362439    -0.06500
C370        C  0.30116733  0.75106081  0.23637477    -0.06400
C371        C  0.18135668  0.72496316  0.22294197    -0.05700
C372        C  0.19981295  0.81359446  0.26312568    -0.06500
C373        C  0.26534596  0.77561782  0.19526657    -0.06400
C374        C  0.13426083  0.69068036  0.21324895    -0.31800
N375        N  0.14183621  0.64522709  0.24554109     0.14700
C376        C  0.19267225  0.65097551  0.27657716    -0.31800
H377        H  0.20915324  0.62239661  0.30807484     0.16700
C378        C  0.17481997  0.85887513  0.28903916    -0.30800
N379        N  0.19868717  0.86387667  0.34261428     0.13400
C380        C  0.23712060  0.82276681  0.35080363    -0.30800
C381        C  0.29828229  0.78709008  0.14996410    -0.31100
N382        N  0.35316104  0.76752016  0.15815606     0.13900
H383        H  0.28277061  0.80730017  0.11198730     0.16600
C384        C  0.35611939  0.74568982  0.21169557    -0.31100
H385        H  0.39433534  0.72556008  0.23046696     0.16600
H386        H  0.26415639  0.81705385  0.38889191     0.16600
H387        H  0.09594751  0.69914366  0.18637739     0.16600
H388        H  0.14239629  0.88635936  0.27034402     0.16600
N389        N  0.08418801  0.90040920  0.97180715    -0.05700
N390        N  0.11644550  0.85678427  0.96418891    -0.57800
N391        N  0.05134882  0.92953137  0.10598748    -0.05300
N392        N  0.04066868  0.92766676  0.16022587    -0.59900
N393        N  0.02484914  0.88975037  0.07961887    -0.04900
N394        N  0.99968552  0.85818738  0.11489530    -0.57800
N395        N  0.11711200  0.94006258  0.99054503    -0.04600
N396        N  0.17204193  0.92485687  0.99010808    -0.60300
C397        C  0.16958398  0.87040458  0.98612201     0.96500
C398        C  0.00803601  0.88263428  0.16503463     0.96300
N399        N  0.02882085  0.09975581  0.09917255    -0.05900
N400        N  0.00887469  0.12983630  0.13926752    -0.58400
N401        N  0.11501406  0.06053318  0.00193766    -0.04000
N402        N  0.17008654  0.07257917  0.99793194    -0.59600
N403        N  0.08191033  0.10267997  0.98866049    -0.05900
N404        N  0.11490360  0.14433916  0.97938089    -0.58600
N405        N  0.05112426  0.05429074  0.11851812    -0.03600
N406        N  0.04097677  0.05063733  0.17298755    -0.59700
Mn407      Mn  0.08604441  0.99590644  0.05618368     1.18400
C408        C  0.01415167  0.09872564  0.18516721     0.98600
C409        C  0.16943560  0.12700796  0.99469946     0.99300
N410        N  0.90585706  0.90240650  0.01710736    -0.05900
N411        N  0.87324887  0.86161345  0.03059146    -0.62200
N412        N  0.94198023  0.95247323  0.88879932    -0.04700
N413        N  0.95254476  0.95663837  0.83456286    -0.62900
N414        N  0.96428231  0.90687718  0.90840135    -0.05400
N415        N  0.98563296  0.87755459  0.86837051    -0.62500
N416        N  0.87325685  0.94403151  0.00162185    -0.04300
N417        N  0.81828583  0.93293006  0.00801526    -0.63200
Mn418      Mn  0.99455615  0.89848510  0.99403331     1.10700
C419        C  0.81850174  0.87853930  0.01537076     0.99800
C420        C  0.98001428  0.90896682  0.82252749     0.99900
N421        N  0.95479685  0.12101392  0.93552093    -0.05400
N422        N  0.96855445  0.16350324  0.90741056    -0.60800
N423        N  0.87254662  0.06354519  0.01810865    -0.04700
N424        N  0.81760499  0.07873315  0.01648995    -0.57500
N425        N  0.90462760  0.10252028  0.04021160    -0.06000
N426        N  0.87192646  0.14613690  0.04658632    -0.60400
N427        N  0.94078594  0.08074664  0.90272476    -0.05000
N428        N  0.95312346  0.09395521  0.85023479    -0.57500
Mn429      Mn  0.99327276  0.10678304  0.01621455     1.20200
Mn430      Mn  0.90507841  0.01022618  0.94999627     1.10100
Cl431      Cl  0.99463688  0.00271275  0.00416007    -0.85500
C432        C  0.97386622  0.14593763  0.85492824     0.96800
C433        C  0.81982916  0.13301413  0.02184448     0.96600
N434        N  0.55186630  0.44759014  0.39784512    -0.05700
N435        N  0.57841911  0.40257657  0.38471387    -0.57800
N436        N  0.49171278  0.56984979  0.37979242    -0.05300
N437        N  0.47742924  0.61427350  0.35123991    -0.59900
N438        N  0.54610039  0.57138928  0.39876787    -0.04900
N439        N  0.56914569  0.61745612  0.38627165    -0.57800
N440        N  0.49727937  0.44681607  0.37944234    -0.04600
N441        N  0.48587811  0.40172990  0.35141290    -0.60300
C442        C  0.53697697  0.37430951  0.35630343     0.96500
C443        C  0.52644179  0.64382910  0.35667141     0.96300
N444        N  0.36897479  0.56754796  0.49850295    -0.05900
N445        N  0.35003961  0.61616342  0.51285556    -0.58400
N446        N  0.38859402  0.44298228  0.44576704    -0.04000
N447        N  0.38628064  0.39439401  0.42410643    -0.59600
N448        N  0.37511532  0.44207070  0.49886163    -0.05900
N449        N  0.36190146  0.39240521  0.51390957    -0.58600
N450        N  0.38069235  0.56602803  0.44495785    -0.03600
N451        N  0.37021209  0.61304977  0.42155775    -0.59700
Mn452      Mn  0.43716502  0.50646022  0.40981116     1.18400
C453        C  0.35249694  0.64385016  0.46436998     0.98600
C454        C  0.37097242  0.36318141  0.46701287     0.99300
N455        N  0.61883376  0.57407875  0.50717587    -0.05900
N456        N  0.63192689  0.62381085  0.49226095    -0.62200
N457        N  0.61084753  0.44929834  0.56056170    -0.04700
N458        N  0.61807256  0.40149520  0.58317087    -0.62900
N459        N  0.62413968  0.44818595  0.50740213    -0.05400
N460        N  0.64193146  0.39911515  0.49305642    -0.62500
N461        N  0.60519841  0.57295640  0.56018997    -0.04300
N462        N  0.60717499  0.62152389  0.58188239    -0.63200
Mn463      Mn  0.58836547  0.51029606  0.45110318     1.10700
C464        C  0.62245511  0.65294345  0.53910871     0.99800
C465        C  0.63601627  0.37055170  0.54068915     0.99900
N466        N  0.44702783  0.44574225  0.60761187    -0.05400
N467        N  0.42351636  0.39998566  0.62037438    -0.60800
N468        N  0.49681388  0.56985220  0.62629157    -0.04700
N469        N  0.50840818  0.61392828  0.65590253    -0.57500
N470        N  0.44245681  0.57003527  0.60723392    -0.06000
N471        N  0.41642962  0.61510829  0.62121648    -0.60400
N472        N  0.50130247  0.44703629  0.62677665    -0.05000
N473        N  0.51511521  0.40274739  0.65578960    -0.57500
Mn474      Mn  0.40539546  0.50647216  0.55471100     1.20200
Mn475      Mn  0.55609027  0.50975138  0.59602154     1.10100
Cl476      Cl  0.49672717  0.50827661  0.50288400    -0.85500
C477        C  0.46586254  0.37353035  0.65035368     0.96800
C478        C  0.45764722  0.64194637  0.65180272     0.96600
C479        C  0.17182547  0.80862256  0.15391296    -0.05000
C480        C  0.15943889  0.77396292  0.10749287    -0.32400
C481        C  0.16464400  0.79131459  0.05198401     0.36800
C482        C  0.18339803  0.84403336  0.04133736    -0.05400
C483        C  0.19700194  0.87794832  0.08778214    -0.32300
C484        C  0.18766726  0.86244221  0.14246760     0.36700
H485        H  0.15117268  0.73154812  0.11350022     0.17100
O486        O  0.15325734  0.75592271  0.00834310    -0.59800
H487        H  0.21324131  0.91847941  0.08226263     0.17100
O488        O  0.20501216  0.89750946  0.18452315    -0.59900
H489        H  0.17526120  0.92707606  0.18355960     0.44100
H490        H  0.11040399  0.75120562  0.00678340     0.44000
C491        C  0.33554628  0.69953087  0.45526113    -0.05000
C492        C  0.27596234  0.70267069  0.44523105    -0.32400
C493        C  0.25446543  0.70659309  0.38976224     0.36800
C494        C  0.29327439  0.71729859  0.34545314    -0.05400
C495        C  0.35113840  0.73046593  0.36089593    -0.32300
C496        C  0.37111639  0.72513944  0.41714571     0.36700
H497        H  0.24697835  0.69055903  0.47759407     0.17100
O498        O  0.19494921  0.70728223  0.38036178    -0.59800
H499        H  0.37989878  0.74654059  0.33043907     0.17100
O500        O  0.42828032  0.73505110  0.43212810    -0.59900
H501        H  0.44877833  0.69948717  0.43076377     0.44100
H502        H  0.18122905  0.67170993  0.39331552     0.44000
C503        C  0.33278867  0.29786492  0.69875913    -0.05000
C504        C  0.37564922  0.26649910  0.67228892    -0.32400
C505        C  0.43200956  0.28527925  0.66763449     0.36800
C506        C  0.44694167  0.33540992  0.69084693    -0.05400
C507        C  0.40970164  0.36007446  0.72843143    -0.32300
C508        C  0.35128280  0.34539749  0.72779411     0.36700
H509        H  0.36734142  0.22639909  0.65665419     0.17100
O510        O  0.46912751  0.25874630  0.63285236    -0.59800
H511        H  0.42214903  0.39782337  0.74876483     0.17100
O512        O  0.31463700  0.37362900  0.76165312    -0.59900
H513        H  0.30987504  0.41002351  0.74433135     0.44100
H514        H  0.48245652  0.22589204  0.65388335     0.44000
C515        C  0.02880871  0.16394270  0.83021257    -0.05000
C516        C  0.04032638  0.15393564  0.77417150    -0.32400
C517        C  0.09226536  0.17237010  0.75256958     0.36800
C518        C  0.13920567  0.19022518  0.78963278    -0.05400
C519        C  0.12651898  0.20134870  0.84508766    -0.32300
C520        C  0.07093035  0.19362232  0.86360755     0.36700
H521        H  0.00698502  0.13671021  0.74610110     0.17100
O522        O  0.09367251  0.17784351  0.69525126    -0.59800
H523        H  0.15749040  0.22263699  0.87245751     0.17100
O524        O  0.05786580  0.21860072  0.91326544    -0.59900
H525        H  0.04139806  0.25457427  0.90218230     0.44100
H526        H  0.07851285  0.21493432  0.68707198     0.44000
C527        C  0.86284372  0.17313502  0.22231346    -0.05000
C528        C  0.91480611  0.18492706  0.25422014    -0.32400
C529        C  0.96413332  0.15146534  0.25365066     0.36800
C530        C  0.96372444  0.10489945  0.22015637    -0.05400
C531        C  0.90984139  0.08780687  0.19586789    -0.32300
C532        C  0.85958141  0.12134162  0.19705489     0.36700
H533        H  0.91726715  0.21986835  0.28160409     0.17100
O534        O  0.01515722  0.16866274  0.27964215    -0.59800
H535        H  0.90823818  0.05121597  0.17056177     0.17100
O536        O  0.80724365  0.10208770  0.17616333    -0.59900
H537        H  0.81196990  0.09625521  0.13536008     0.44100
H538        H  0.01451206  0.15471587  0.31870858     0.44000
C539        C  0.55574594  0.33417662  0.31738954    -0.05000
C540        C  0.58992778  0.35620343  0.27646991    -0.32400
C541        C  0.64744737  0.33872513  0.27271589     0.36800
C542        C  0.66784636  0.29233617  0.30324139    -0.05400
C543        C  0.62690315  0.26317395  0.33321853    -0.32300
C544        C  0.57172458  0.28452219  0.34161427     0.36700
H545        H  0.57626372  0.39359485  0.25561319     0.17100
O546        O  0.68110136  0.36342242  0.23427884    -0.59800
H547        H  0.63595383  0.22317632  0.34920979     0.17100
O548        O  0.53734160  0.26101811  0.38023089    -0.59900
H549        H  0.52205373  0.22783794  0.36161598     0.44100
H550        H  0.68604839  0.40113716  0.24795016     0.44000
C551        C  0.64446675  0.70613892  0.55134327    -0.05000
C552        C  0.70405271  0.70303221  0.56228215    -0.32400
C553        C  0.72527865  0.70398334  0.61806656     0.36800
C554        C  0.68684388  0.71686623  0.66240395    -0.05400
C555        C  0.63007156  0.73499277  0.64673426    -0.32300
C556        C  0.61070517  0.73389613  0.59009756     0.36700
H557        H  0.73245418  0.68926188  0.52973164     0.17100
O558        O  0.78465509  0.70052841  0.62766710    -0.59800
H559        H  0.60201706  0.75261246  0.67745791     0.17100
O560        O  0.55421316  0.74802042  0.57548801    -0.59900
H561        H  0.55612963  0.78560120  0.56114773     0.44100
H562        H  0.79678855  0.66450990  0.61331054     0.44000
C563        C  0.80404491  0.81021672  0.85374120    -0.05000
C564        C  0.81644084  0.77628186  0.90077987    -0.32400
C565        C  0.81189958  0.79533848  0.95585306     0.36800
C566        C  0.79462004  0.84928762  0.96529314    -0.05400
C567        C  0.77672098  0.88115301  0.91855154    -0.32300
C568        C  0.78592025  0.86421808  0.86410411     0.36700
H569        H  0.82505688  0.73353117  0.89553989     0.17100
O570        O  0.82431274  0.76115065  0.00042967    -0.59800
H571        H  0.75968182  0.92192765  0.92381912     0.17100
O572        O  0.76681807  0.89805091  0.82135640    -0.59900
H573        H  0.79569850  0.92754186  0.82107417     0.44100
H574        H  0.86685143  0.75372111  0.00017101     0.44000
C575        C  0.81623236  0.19789165  0.85430014    -0.05000
C576        C  0.83078850  0.23140487  0.90117800    -0.32400
C577        C  0.82727280  0.21294049  0.95664038     0.36800
C578        C  0.80745744  0.16045921  0.96679604    -0.05400
C579        C  0.79158276  0.12779948  0.92000765    -0.32300
C580        C  0.79887073  0.14435319  0.86523024     0.36700
H581        H  0.84000808  0.27370904  0.89568004     0.17100
O582        O  0.84104869  0.24718211  0.00069671    -0.59800
H583        H  0.77420338  0.08765888  0.92523901     0.17100
O584        O  0.77756851  0.11111907  0.82311308    -0.59900
H585        H  0.80526659  0.07997262  0.82232169     0.44100
H586        H  0.88410523  0.25009980  0.00160285     0.44000
C587        C  0.69575459  0.29399028  0.66389614    -0.05000
C588        C  0.73601165  0.30998435  0.62351385    -0.32400
C589        C  0.71863907  0.31928556  0.56773650     0.36800
C590        C  0.65954392  0.31748199  0.55290349    -0.05400
C591        C  0.62328801  0.28746033  0.58670231    -0.32300
C592        C  0.64012575  0.27788840  0.64320799     0.36700
H593        H  0.78206729  0.31307485  0.63427296     0.17100
O594        O  0.75678513  0.34249526  0.53242701    -0.59800
H595        H  0.57819974  0.28127584  0.57307495     0.17100
O596        O  0.60298449  0.25131482  0.67672585    -0.59900
H597        H  0.57246216  0.27848013  0.68527037     0.44100
H598        H  0.77471507  0.31172880  0.51235549     0.44000
C599        C  0.12908583  0.83452883  0.78491887    -0.05000
C600        C  0.07739227  0.82367342  0.75226434    -0.32400
C601        C  0.02878756  0.85791103  0.75245459     0.36800
C602        C  0.02966576  0.90381837  0.78678480    -0.05400
C603        C  0.08356585  0.92036295  0.81128252    -0.32300
C604        C  0.13312596  0.88611897  0.81052384     0.36700
H605        H  0.07474321  0.78901710  0.72451781     0.17100
O606        O  0.97779140  0.84192166  0.72551411    -0.59800
H607        H  0.08546053  0.95670408  0.83696645     0.17100
O608        O  0.18544552  0.90439342  0.83248723    -0.59900
H609        H  0.18020400  0.90924897  0.87336891     0.44100
H610        H  0.97752012  0.85935996  0.68794594     0.44000
C611        C  0.32396457  0.71538286  0.70554534    -0.05000
C612        C  0.36675593  0.74818572  0.68230158    -0.32400
C613        C  0.42338854  0.72928922  0.67730882     0.36800
C614        C  0.43795908  0.67709999  0.69528581    -0.05400
C615        C  0.40135731  0.65060648  0.73119923    -0.32300
C616        C  0.34326034  0.66702172  0.73316653     0.36700
H617        H  0.35783657  0.78956125  0.67009556     0.17100
O618        O  0.46183557  0.75918039  0.64828413    -0.59800
H619        H  0.41425659  0.61146113  0.74861834     0.17100
O620        O  0.30774417  0.63886343  0.76719507    -0.59900
H621        H  0.30404015  0.60236767  0.74996174     0.44100
H622        H  0.48848109  0.77517903  0.67764049     0.44000
C623        C  0.65972670  0.71575911  0.30345302    -0.05000
C624        C  0.61934813  0.74831831  0.33177739    -0.32400
C625        C  0.56303669  0.73098446  0.33932525     0.36800
C626        C  0.54497704  0.68179883  0.31591156    -0.05400
C627        C  0.57925650  0.65656086  0.27612767    -0.32300
C628        C  0.63793921  0.66975516  0.27378613     0.36700
H629        H  0.62967872  0.78822832  0.34691203     0.17100
O630        O  0.52842211  0.75895922  0.37527579    -0.59800
H631        H  0.56435781  0.61966722  0.25559869     0.17100
O632        O  0.67136904  0.64182588  0.23672358    -0.59900
H633        H  0.67656502  0.60495673  0.25275019     0.44100
H634        H  0.54518577  0.75115175  0.41375212     0.44000
C635        C  0.85369229  0.82534755  0.21691761    -0.05000
C636        C  0.90597671  0.81249732  0.24831639    -0.32400
C637        C  0.95769101  0.83882462  0.23939594     0.36800
C638        C  0.95794080  0.88050117  0.20022658    -0.05400
C639        C  0.90442188  0.90072540  0.17689022    -0.32300
C640        C  0.85213276  0.87349598  0.18530320     0.36700
H641        H  0.90714758  0.78128336  0.28012039     0.17100
O642        O  0.00886487  0.81934444  0.26414667    -0.59800
H643        H  0.90407798  0.93431980  0.14757724     0.17100
O644        O  0.80002682  0.89561927  0.16565275    -0.59900
H645        H  0.80358015  0.90106171  0.12468207     0.44100
H646        H  0.01484308  0.84090848  0.29914907     0.44000
C647        C  0.30865252  0.29039931  0.34478930    -0.05000
C648        C  0.27005314  0.30486700  0.38771580    -0.32400
C649        C  0.28974468  0.31069776  0.44338934     0.36800
C650        C  0.34952858  0.30971234  0.45512336    -0.05400
C651        C  0.38494165  0.28110352  0.41845575    -0.32300
C652        C  0.36577714  0.27382524  0.36221460     0.36700
H653        H  0.22355267  0.30845308  0.37902664     0.17100
O654        O  0.25227734  0.33001819  0.48236644    -0.59800
H655        H  0.43072113  0.27471733  0.42985773     0.17100
O656        O  0.40237007  0.24917219  0.32582428    -0.59900
H657        H  0.43311506  0.27604393  0.31959326     0.44100
H658        H  0.24950517  0.30042792  0.51022636     0.44000
C659        C  0.18271702  0.20038251  0.15582896    -0.05000
C660        C  0.19497442  0.14493807  0.14922372    -0.32400
C661        C  0.20257178  0.12246896  0.09658860     0.36800
C662        C  0.19083326  0.15370839  0.04721497    -0.05400
C663        C  0.17805950  0.20887908  0.05320081    -0.32300
C664        C  0.17368258  0.23226606  0.10632865     0.36700
H665        H  0.20697838  0.11968939  0.18502781     0.17100
O666        O  0.22083784  0.06932699  0.09447950    -0.59800
H667        H  0.16906598  0.23369233  0.01614007     0.17100
O668        O  0.16733284  0.28741917  0.10893802    -0.59900
H669        H  0.12664136  0.29521622  0.09516976     0.44100
H670        H  0.26326809  0.07072132  0.08880571     0.44000
loop_ 
_geom_bond_atom_site_label_1 
_geom_bond_atom_site_label_2 
_geom_bond_distance 
_geom_bond_site_symmetry_2 
_ccdc_geom_bond_type 
C1            C3   1.566       .  S
C1            C5   1.559       .  S
C1            C4   1.538       .  S
C1          C647   1.510       .  S
C2            C6   1.547       .  S
C2            C8   1.545       .  S
C2            C7   1.547       .  S
C2          C659   1.507       .  S
C3           C11   1.415       .  A
C3            C6   1.384       .  A
C4           C15   1.375       .  A
C4            C7   1.375       .  A
C5           C19   1.395       .  A
C5            C8   1.386       .  A
C6            C9   1.376       .  A
C7           C13   1.398       .  A
C8           C16   1.390       .  A
C9           N10   1.350       .  A
C9           H22   1.080       .  S
N10          C11   1.376       .  A
N10         C285   1.469       .  S
C11          H12   1.080       .  S
C13          N14   1.369       .  A
C13          H23   1.082       .  S
N14          C15   1.348       .  A
N14         C102   1.453       .  S
C15          H21   1.082       .  S
C16          N17   1.362       .  A
C16          H18   1.082       .  S
N17          C19   1.363       .  A
N17          C44   1.461       .  S
C19          H20   1.082       .  S
N24          C29   1.361       .  A
N24          C28   1.362   1_655  A
N24          H56   1.043       .  S
N25          C32   1.358       .  A
N25          C33   1.358       .  A
N26          C31   1.362       .  A
N26          C30   1.363   1_655  A
N26          H57   1.043       .  S
N27          C34   1.368       .  A
N27          C35   1.368       .  A
C28          C36   1.384       .  A
C28          C44   1.424       .  A
C29          C45   1.431       .  A
C29          C37   1.388       .  A
C30          C38   1.383       .  A
C30          C47   1.425       .  A
C31          C46   1.435       .  A
C31          C39   1.388       .  A
C32          C44   1.424       .  A
C32          C40   1.386       .  A
C33          C47   1.425       .  A
C33          C41   1.386       .  A
C34          C42   1.387       .  A
C34          C45   1.446       .  A
C35          C43   1.386       .  A
C35          C46   1.444       .  A
C36          C37   1.377   1_455  A
C36          H48   1.083       .  S
C37          H49   1.081       .  S
C38          C39   1.377   1_455  A
C38          H50   1.083       .  S
C39          H51   1.081       .  S
C40          C41   1.380       .  A
C40          H52   1.082       .  S
C41          H53   1.082       .  S
C42          C43   1.389       .  A
C42          H54   1.080       .  S
C43          H55   1.081       .  S
C45         N329   1.481       .  S
C46          N67   1.482       .  S
C47         N375   1.463       .  S
C58          C60   1.565       .  S
C58          C62   1.577       .  S
C58          C61   1.546       .  S
C58         C635   1.519       .  S
C59          C63   1.559       .  S
C59          C65   1.541       .  S
C59          C64   1.556       .  S
C59         C623   1.508       .  S
C60          C68   1.390       .  A
C60          C63   1.382       .  A
C61          C72   1.390       .  A
C61          C64   1.377       .  A
C62          C76   1.424       .  A
C62          C65   1.384       .  A
C63          C66   1.408       .  A
C64          C70   1.403       .  A
C65          C73   1.373       .  A
C66          N67   1.373       .  A
C66          H79   1.082       .  S
N67          C68   1.368       .  A
C68          H69   1.082       .  S
C70          N71   1.367       .  A
C70          H80   1.081       .  S
N71          C72   1.358       .  A
N71         C135   1.465       .  S
C72          H78   1.083       .  S
C73          N74   1.345       .  A
C73          H75   1.080       .  S
N74          C76   1.383       .  A
N74         C251   1.475       .  S
C76          H77   1.081       .  S
N81          C86   1.355       .  A
N81          C85   1.355   1_545  A
N81         H113   1.042       .  S
N82          C89   1.357       .  A
N82          C90   1.359       .  A
N83          C88   1.360       .  A
N83          C87   1.360   1_545  A
N83         H114   1.039       .  S
N84          C91   1.358       .  A
N84          C92   1.359       .  A
C85          C93   1.385       .  A
C85         C101   1.413       .  A
C86         C102   1.413       .  A
C86          C94   1.386       .  A
C87          C95   1.386       .  A
C87         C104   1.426       .  A
C88         C103   1.428       .  A
C88          C96   1.386       .  A
C89         C101   1.425       .  A
C89          C97   1.387       .  A
C90         C104   1.422       .  A
C90          C98   1.384       .  A
C91          C99   1.386       .  A
C91         C102   1.427       .  A
C92         C100   1.385       .  A
C92         C103   1.425       .  A
C93          C94   1.374   1_565  A
C93         H105   1.081       .  S
C94         H106   1.082       .  S
C95          C96   1.381   1_565  A
C95         H107   1.082       .  S
C96         H108   1.082       .  S
C97          C98   1.378       .  A
C97         H109   1.082       .  S
C98         H110   1.082       .  S
C99         C100   1.377       .  A
C99         H111   1.082       .  S
C100        H112   1.082       .  S
C101        N379   1.451       .  S
C103        N356   1.461       .  S
C104        N162   1.458       .  S
N115        C120   1.360       .  A
N115        C119   1.361   1_545  A
N115        H147   1.038       .  S
N116        C123   1.361       .  A
N116        C124   1.358       .  A
N117        C122   1.358       .  A
N117        C121   1.356   1_545  A
N117        H148   1.042       .  S
N118        C125   1.358       .  A
N118        C126   1.357       .  A
C119        C127   1.386       .  A
C119        C135   1.429       .  A
C120        C136   1.428       .  A
C120        C128   1.387       .  A
C121        C129   1.386       .  A
C121        C138   1.418       .  A
C122        C137   1.417       .  A
C122        C130   1.385       .  A
C123        C135   1.425       .  A
C123        C131   1.384       .  A
C124        C138   1.429       .  A
C124        C132   1.387       .  A
C125        C133   1.384       .  A
C125        C136   1.421       .  A
C126        C134   1.386       .  A
C126        C137   1.425       .  A
C127        C128   1.381   1_565  A
C127        H139   1.082       .  S
C128        H140   1.082       .  S
C129        C130   1.375   1_565  A
C129        H141   1.081       .  S
C130        H142   1.081       .  S
C131        C132   1.378       .  A
C131        H143   1.082       .  S
C132        H144   1.082       .  S
C133        C134   1.376       .  A
C133        H145   1.082       .  S
C134        H146   1.082       .  S
C136        N336   1.458       .  S
C137        N222   1.456       .  S
C138        N310   1.455       .  S
C149        C151   1.571       .  S
C149        C153   1.578       .  S
C149        C152   1.547       .  S
C149        C599   1.525       .  S
C150        C154   1.553       .  S
C150        C156   1.537       .  S
C150        C155   1.548       .  S
C150        C611   1.504       .  S
C151        C159   1.392       .  A
C151        C154   1.385       .  A
C152        C163   1.388       .  A
C152        C155   1.375       .  A
C153        C167   1.423       .  A
C153        C156   1.385       .  A
C154        C157   1.403       .  A
C155        C161   1.400       .  A
C156        C164   1.371       .  A
C157        N158   1.369       .  A
C157        H170   1.081       .  S
N158        C159   1.372       .  A
N158        C192   1.481       .  S
C159        H160   1.082       .  S
C161        N162   1.365       .  A
C161        H171   1.082       .  S
N162        C163   1.356       .  A
C163        H169   1.082       .  S
C164        N165   1.344       .  A
C164        H166   1.081       .  S
N165        C167   1.383       .  A
N165        C249   1.472       .  S
C167        H168   1.081       .  S
N172        C177   1.369       .  A
N172        C176   1.370       .  A
N172        H204   1.041       .  S
N173        C180   1.359   1_655  A
N173        C181   1.361       .  A
N174        C179   1.360       .  A
N174        C178   1.359       .  A
N174        H205   1.039       .  S
N175        C182   1.359   1_655  A
N175        C183   1.362       .  A
C176        C184   1.387       .  A
C176        C192   1.448       .  A
C177        C193   1.447       .  A
C177        C185   1.387       .  A
C178        C186   1.386       .  A
C178        C195   1.426       .  A
C179        C194   1.427       .  A
C179        C187   1.386       .  A
C180        C192   1.430       .  A
C180        C188   1.387       .  A
C181        C195   1.423       .  A
C181        C189   1.383       .  A
C182        C190   1.389       .  A
C182        C193   1.432       .  A
C183        C191   1.382       .  A
C183        C194   1.422       .  A
C184        C185   1.391       .  A
C184        H196   1.081       .  S
C185        H197   1.081       .  S
C186        C187   1.384       .  A
C186        H198   1.082       .  S
C187        H199   1.082       .  S
C188        C189   1.374   1_455  A
C188        H200   1.081       .  S
C189        H201   1.083       .  S
C190        C191   1.374   1_455  A
C190        H202   1.081       .  S
C191        H203   1.083       .  S
C193        N359   1.480       .  S
C194        N215   1.462       .  S
C195        N306   1.461       .  S
C206        C208   1.555       .  S
C206        C210   1.538       .  S
C206        C209   1.567       .  S
C206        C587   1.510       .  S
C207        C211   1.555       .  S
C207        C213   1.549       .  S
C207        C212   1.548       .  S
C207        C575   1.514       .  S
C208        C216   1.391       .  A
C208        C211   1.387       .  A
C209        C220   1.418       .  A
C209        C212   1.384       .  A
C210        C224   1.376       .  A
C210        C213   1.374       .  A
C211        C214   1.396       .  A
C212        C218   1.373       .  A
C213        C221   1.401       .  A
C214        N215   1.367       .  A
C214        H227   1.082       .  S
N215        C216   1.359       .  A
C216        H217   1.082       .  S
C218        N219   1.347       .  A
C218        H228   1.077       .  S
N219        C220   1.378       .  A
N219        C283   1.471       .  S
C220        H226   1.081       .  S
C221        N222   1.369       .  A
C221        H223   1.082       .  S
N222        C224   1.349       .  A
C224        H225   1.082       .  S
N229        C234   1.362       .  A
N229        C233   1.361       .  A
N229        H261   1.041       .  S
N230        C237   1.362   1_554  A
N230        C238   1.361       .  A
N231        C236   1.363       .  A
N231        C235   1.364       .  A
N231        H262   1.042       .  S
N232        C239   1.362       .  A
N232        C240   1.363   1_556  A
C233        C241   1.391       .  A
C233        C249   1.440       .  A
C234        C250   1.425       .  A
C234        C242   1.383       .  A
C235        C243   1.382       .  A
C235        C252   1.428       .  A
C236        C251   1.443       .  A
C236        C244   1.392       .  A
C237        C249   1.424       .  A
C237        C245   1.382       .  A
C238        C252   1.440       .  A
C238        C246   1.391       .  A
C239        C247   1.391       .  A
C239        C250   1.441       .  A
C240        C248   1.382       .  A
C240        C251   1.426       .  A
C241        C242   1.385       .  A
C241        H253   1.082       .  S
C242        H254   1.082       .  S
C243        C244   1.385       .  A
C243        H255   1.082       .  S
C244        H256   1.082       .  S
C245        C246   1.380   1_556  A
C245        H257   1.082       .  S
C246        H258   1.082       .  S
C247        C248   1.380   1_556  A
C247        H259   1.082       .  S
C248        H260   1.082       .  S
C250        N313   1.475       .  S
C252        N382   1.477       .  S
N263        C268   1.363       .  A
N263        C267   1.361       .  A
N263        H295   1.042       .  S
N264        C271   1.360       .  A
N264        C272   1.363   1_556  A
N265        C270   1.362       .  A
N265        C269   1.364       .  A
N265        H296   1.041       .  S
N266        C273   1.362   1_554  A
N266        C274   1.358       .  A
C267        C275   1.383       .  A
C267        C283   1.426       .  A
C268        C284   1.441       .  A
C268        C276   1.390       .  A
C269        C277   1.391       .  A
C269        C286   1.443       .  A
C270        C285   1.429       .  A
C270        C278   1.384       .  A
C271        C283   1.439       .  A
C271        C279   1.391       .  A
C272        C286   1.424       .  A
C272        C280   1.381       .  A
C273        C281   1.382       .  A
C273        C284   1.423       .  A
C274        C282   1.391       .  A
C274        C285   1.436       .  A
C275        C276   1.383       .  A
C275        H287   1.082       .  S
C276        H288   1.082       .  S
C277        C278   1.385       .  A
C277        H289   1.082       .  S
C278        H290   1.082       .  S
C279        C280   1.379   1_556  A
C279        H291   1.082       .  S
C280        H292   1.082       .  S
C281        C282   1.380   1_556  A
C281        H293   1.082       .  S
C282        H294   1.082       .  S
C284        N352   1.475       .  S
C286        N333   1.476       .  S
C297        C299   1.556       .  S
C297        C301   1.570       .  S
C297        C300   1.542       .  S
C297        C554   1.506       .  S
C298        C302   1.551       .  S
C298        C304   1.549       .  S
C298        C303   1.544       .  S
C298        C563   1.505       .  S
C299        C307   1.392       .  A
C299        C302   1.387       .  A
C300        C311   1.378       .  A
C300        C303   1.371       .  A
C301        C315   1.421       .  A
C301        C304   1.381       .  A
C302        C305   1.392       .  A
C303        C309   1.400       .  A
C304        C312   1.374       .  A
C305        N306   1.365       .  A
C305        H318   1.082       .  S
N306        C307   1.361       .  A
C307        H308   1.082       .  S
C309        N310   1.369       .  A
C309        H319   1.082       .  S
N310        C311   1.348       .  A
C311        H317   1.082       .  S
C312        N313   1.346       .  A
C312        H314   1.077       .  S
N313        C315   1.382       .  A
C315        H316   1.082       .  S
C320        C322   1.571       .  S
C320        C324   1.545       .  S
C320        C323   1.583       .  S
C320        C527   1.531       .  S
C321        C325   1.554       .  S
C321        C327   1.550       .  S
C321        C326   1.537       .  S
C321        C542   1.507       .  S
C322        C330   1.394       .  A
C322        C325   1.384       .  A
C323        C334   1.425       .  A
C323        C326   1.387       .  A
C324        C338   1.387       .  A
C324        C327   1.378       .  A
C325        C328   1.404       .  A
C326        C332   1.373       .  A
C327        C335   1.401       .  A
C328        N329   1.369       .  A
C328        H341   1.082       .  S
N329        C330   1.372       .  A
C330        H331   1.082       .  S
C332        N333   1.345       .  A
C332        H342   1.081       .  S
N333        C334   1.385       .  A
C334        H340   1.081       .  S
C335        N336   1.364       .  A
C335        H337   1.081       .  S
N336        C338   1.355       .  A
C338        H339   1.082       .  S
C343        C345   1.576       .  S
C343        C347   1.552       .  S
C343        C346   1.546       .  S
C343        C518   1.518       .  S
C344        C348   1.543       .  S
C344        C350   1.556       .  S
C344        C349   1.560       .  S
C344        C503   1.512       .  S
C345        C353   1.421       .  A
C345        C348   1.382       .  A
C346        C357   1.387       .  A
C346        C349   1.384       .  A
C347        C361   1.383       .  A
C347        C350   1.380       .  A
C348        C351   1.376       .  A
C349        C355   1.401       .  A
C350        C358   1.408       .  A
C351        N352   1.347       .  A
C351        H364   1.080       .  S
N352        C353   1.382       .  A
C353        H354   1.082       .  S
C355        N356   1.366       .  A
C355        H365   1.081       .  S
N356        C357   1.356       .  A
C357        H363   1.082       .  S
C358        N359   1.373       .  A
C358        H360   1.081       .  S
N359        C361   1.367       .  A
C361        H362   1.082       .  S
C366        C368   1.553       .  S
C366        C370   1.568       .  S
C366        C369   1.537       .  S
C366        C494   1.506       .  S
C367        C371   1.553       .  S
C367        C373   1.553       .  S
C367        C372   1.548       .  S
C367        C479   1.508       .  S
C368        C376   1.392       .  A
C368        C371   1.385       .  A
C369        C380   1.374       .  A
C369        C372   1.372       .  A
C370        C384   1.420       .  A
C370        C373   1.384       .  A
C371        C374   1.394       .  A
C372        C378   1.403       .  A
C373        C381   1.375       .  A
C374        N375   1.366       .  A
C374        H387   1.082       .  S
N375        C376   1.362       .  A
C376        H377   1.082       .  S
C378        N379   1.369       .  A
C378        H388   1.082       .  S
N379        C380   1.345       .  A
C380        H386   1.083       .  S
C381        N382   1.350       .  A
C381        H383   1.076       .  S
N382        C384   1.381       .  A
C384        H385   1.082       .  S
N389        N390   1.315       .  A
N389        N395   1.311       .  A
N389       Mn418   2.149   1_455  S
N390        C397   1.352       .  A
N391        N393   1.307       .  A
N391        N392   1.323       .  A
N391       Mn407   2.203       .  S
N392        C398   1.358       .  A
N393        N394   1.305   1_455  A
N393       Mn418   2.130   1_454  S
N394        C398   1.341   1_655  A
N395        N396   1.312       .  A
N395       Mn407   2.214   1_556  S
N396        C397   1.350       .  A
C397        C482   1.485   1_556  S
C398        C638   1.454   1_455  S
N399        N405   1.304       .  A
N399        N400   1.301       .  A
N399       Mn429   2.106   1_455  S
N400        C408   1.336       .  A
N401        N402   1.311   1_554  A
N401        N403   1.311   1_554  A
N401       Mn407   2.184   1_545  S
N402        C409   1.346       .  A
N403        N404   1.311       .  A
N403       Mn429   2.167   1_456  S
N404        C409   1.353       .  A
N405        N406   1.328       .  A
N405       Mn407   2.230   1_545  S
N406        C408   1.366       .  A
Mn407      Cl431   2.392   1_465  S
C408        C530   1.461   1_455  S
C409        C662   1.477   1_556  S
N410        N411   1.313       .  A
N410        N416   1.307       .  A
N410       Mn418   2.134   1_554  S
N411        C419   1.353       .  A
N412        N414   1.309       .  A
N412        N413   1.326       .  A
N412       Mn430   2.220   1_565  S
N413        C420   1.363       .  A
N414        N415   1.302       .  A
N414       Mn418   2.130       .  S
N415        C420   1.339       .  A
N416        N417   1.311       .  A
N416       Mn430   2.199   1_564  S
N417        C419   1.355       .  A
Mn418      Cl431   2.585   1_566  S
C419        C566   1.478   1_554  S
C420        C602   1.456   1_655  S
N421        N422   1.296       .  A
N421        N427   1.297       .  A
N421       Mn429   2.103   1_556  S
N422        C432   1.329       .  A
N423        N424   1.310       .  A
N423        N425   1.315       .  A
N423       Mn430   2.231   1_554  S
N424        C433   1.348       .  A
N425        N426   1.317       .  A
N425       Mn429   2.143       .  S
N426        C433   1.353       .  A
N427        N428   1.333       .  A
N427       Mn430   2.258       .  S
N428        C432   1.378       .  A
Mn429      Cl431   2.585       .  S
Mn430      Cl431   2.382   1_556  S
C432        C515   1.489   1_655  S
C433        C578   1.489   1_554  S
N434        N435   1.304       .  A
N434        N440   1.310       .  A
N434       Mn463   2.152       .  S
N435        C442   1.345       .  A
N436        N438   1.310       .  A
N436        N437   1.321       .  A
N436       Mn452   2.161       .  S
N437        C443   1.352       .  A
N438        N439   1.302       .  A
N438       Mn463   2.151       .  S
N439        C443   1.343       .  A
N440        N441   1.319       .  A
N440       Mn452   2.150       .  S
N441        C442   1.347       .  A
C442        C539   1.428       .  S
C443        C626   1.432       .  S
N444        N450   1.312       .  A
N444        N445   1.320       .  A
N444       Mn474   2.152       .  S
N445        C453   1.345       .  A
N446        N447   1.305       .  A
N446        N448   1.312       .  A
N446       Mn452   2.139       .  S
N447        C454   1.342       .  A
N448        N449   1.322       .  A
N448       Mn474   2.170       .  S
N449        C454   1.348       .  A
N450        N451   1.303       .  A
N450       Mn452   2.140       .  S
N451        C453   1.342       .  A
Mn452      Cl476   2.548       .  S
C453        C491   1.438       .  S
C454        C650   1.439       .  S
N455        N456   1.322       .  A
N455        N461   1.312       .  A
N455       Mn463   2.164       .  S
N456        C464   1.347       .  A
N457        N459   1.312       .  A
N457        N458   1.304       .  A
N457       Mn475   2.134       .  S
N458        C465   1.340       .  A
N459        N460   1.322       .  A
N459       Mn463   2.166       .  S
N460        C465   1.348       .  A
N461        N462   1.305       .  A
N461       Mn475   2.139       .  S
N462        C464   1.342       .  A
Mn463      Cl476   2.486       .  S
C464        C551   1.439       .  S
C465        C590   1.436       .  S
N466        N467   1.302       .  A
N466        N472   1.309       .  A
N466       Mn474   2.146       .  S
N467        C477   1.343       .  A
N468        N469   1.318       .  A
N468        N470   1.309       .  A
N468       Mn475   2.144       .  S
N469        C478   1.347       .  A
N470        N471   1.305       .  A
N470       Mn474   2.163       .  S
N471        C478   1.348       .  A
N472        N473   1.322       .  A
N472       Mn475   2.159       .  S
N473        C477   1.352       .  A
Mn474      Cl476   2.480       .  S
Mn475      Cl476   2.547       .  S
C477        C506   1.433       .  S
C478        C614   1.432       .  S
C479        C480   1.415       .  A
C479        C484   1.413       .  A
C480        C481   1.398       .  A
C480        H485   1.078       .  S
C481        C482   1.404       .  A
C481        O486   1.373       .  S
C482        C483   1.410       .  A
C483        C484   1.382       .  A
C483        H487   1.084       .  S
C484        O488   1.370       .  S
O486        H490   0.992       .  S
O488        H489   0.992       .  S
C491        C492   1.380       .  A
C491        C496   1.404       .  A
C492        C493   1.389       .  A
C492        H497   1.085       .  S
C493        C494   1.437       .  A
C493        O498   1.375       .  S
C494        C495   1.405       .  A
C495        C496   1.399       .  A
C495        H499   1.081       .  S
C496        O500   1.370       .  S
O498        H502   0.992       .  S
O500        H501   0.992       .  S
C503        C504   1.412       .  A
C503        C508   1.420       .  A
C504        C505   1.391       .  A
C504        H509   1.073       .  S
C505        C506   1.395       .  A
C505        O510   1.372       .  S
C506        C507   1.396       .  A
C507        C508   1.394       .  A
C507        H511   1.085       .  S
C508        O512   1.372       .  S
O510        H514   0.992       .  S
O512        H513   0.992       .  S
C515        C516   1.389       .  A
C515        C520   1.432       .  A
C516        C517   1.402       .  A
C516        H521   1.084       .  S
C517        C518   1.435       .  A
C517        O522   1.370       .  S
C518        C519   1.388       .  A
C519        C520   1.385       .  A
C519        H523   1.083       .  S
C520        O524   1.373       .  S
O522        H526   0.992       .  S
O524        H525   0.992       .  S
C527        C528   1.418       .  A
C527        C532   1.413       .  A
C528        C529   1.393       .  A
C528        H533   1.080       .  S
C529        C530   1.396       .  A
C529        O534   1.372   1_655  S
C530        C531   1.412       .  A
C531        C532   1.412       .  A
C531        H535   1.084       .  S
C532        O536   1.371       .  S
O534        H538   0.992       .  S
O536        H537   0.990       .  S
C539        C540   1.393       .  A
C539        C544   1.393       .  A
C540        C541   1.391       .  A
C540        H545   1.085       .  S
C541        C542   1.420       .  A
C541        O546   1.372       .  S
C542        C543   1.411       .  A
C543        C544   1.388       .  A
C543        H547   1.073       .  S
C544        O548   1.372       .  S
O546        H550   0.992       .  S
O548        H549   0.991       .  S
C551        C552   1.383       .  A
C551        C556   1.401       .  A
C552        C553   1.392       .  A
C552        H557   1.084       .  S
C553        C554   1.436       .  A
C553        O558   1.374       .  S
C554        C555   1.407       .  A
C555        C556   1.398       .  A
C555        H559   1.081       .  S
C556        O560   1.369       .  S
O558        H562   0.992       .  S
O560        H561   0.992       .  S
C563        C564   1.415       .  A
C563        C568   1.415       .  A
C564        C565   1.397       .  A
C564        H569   1.079       .  S
C565        C566   1.405       .  A
C565        O570   1.373   1_556  S
C566        C567   1.406       .  A
C567        C568   1.382       .  A
C567        H571   1.084       .  S
C568        O572   1.370       .  S
O570        H574   0.992       .  S
O572        H573   0.992       .  S
C575        C576   1.416       .  A
C575        C580   1.415       .  A
C576        C577   1.401       .  A
C576        H581   1.078       .  S
C577        C578   1.405       .  A
C577        O582   1.372   1_556  S
C578        C579   1.409       .  A
C579        C580   1.383       .  A
C579        H583   1.083       .  S
C580        O584   1.370       .  S
O582        H586   0.992       .  S
O584        H585   0.992       .  S
C587        C588   1.422       .  A
C587        C592   1.411       .  A
C588        C589   1.385       .  A
C588        H593   1.081       .  S
C589        C590   1.388       .  A
C589        O594   1.372       .  S
C590        C591   1.403       .  A
C591        C592   1.400       .  A
C591        H595   1.084       .  S
C592        O596   1.368       .  S
O594        H598   0.990       .  S
O596        H597   0.991       .  S
C599        C600   1.417       .  A
C599        C604   1.413       .  A
C600        C601   1.391       .  A
C600        H605   1.079       .  S
C601        C602   1.394       .  A
C601        O606   1.372   1_455  S
C602        C603   1.410       .  A
C603        C604   1.409       .  A
C603        H607   1.084       .  S
C604        O608   1.371       .  S
O606        H610   0.992       .  S
O608        H609   0.991       .  S
C611        C612   1.415       .  A
C611        C616   1.420       .  A
C612        C613   1.386       .  A
C612        H617   1.077       .  S
C613        C614   1.390       .  A
C613        O618   1.370       .  S
C614        C615   1.395       .  A
C615        C616   1.392       .  A
C615        H619   1.085       .  S
C616        O620   1.371       .  S
O618        H622   0.992       .  S
O620        H621   0.992       .  S
C623        C624   1.411       .  A
C623        C628   1.421       .  A
C624        C625   1.388       .  A
C624        H629   1.074       .  S
C625        C626   1.395       .  A
C625        O630   1.371       .  S
C626        C627   1.396       .  A
C627        C628   1.395       .  A
C627        H631   1.085       .  S
C628        O632   1.372       .  S
O630        H634   0.994       .  S
O632        H633   0.991       .  S
C635        C636   1.418       .  A
C635        C640   1.407       .  A
C636        C637   1.387       .  A
C636        H641   1.080       .  S
C637        C638   1.390       .  A
C637        O642   1.372   1_655  S
C638        C639   1.411       .  A
C639        C640   1.407       .  A
C639        H643   1.084       .  S
C640        O644   1.372       .  S
O642        H646   0.992       .  S
O644        H645   0.990       .  S
C647        C648   1.422       .  A
C647        C652   1.413       .  A
C648        C649   1.386       .  A
C648        H653   1.081       .  S
C649        C650   1.389       .  A
C649        O654   1.372       .  S
C650        C651   1.401       .  A
C651        C652   1.400       .  A
C651        H655   1.084       .  S
C652        O656   1.368       .  S
O654        H658   0.992       .  S
O656        H657   0.992       .  S
C659        C660   1.404       .  A
C659        C664   1.423       .  A
C660        C661   1.384       .  A
C660        H665   1.079       .  S
C661        C662   1.419       .  A
C661        O666   1.373       .  S
C662        C663   1.398       .  A
C663        C664   1.393       .  A
C663        H667   1.085       .  S
C664        O668   1.369       .  S
O666        H670   0.991       .  S
O668        H669   0.993       .  S
