geometry optimzed in LAMMPS
_audit_creation_date              2020-12-01 
_audit_creation_method            'lammps2cif' 
_symmetry_space_group_name_H-M    'P1' 
_symmetry_Int_Tables_number       1 
_symmetry_cell_setting            triclinic 
loop_ 
_symmetry_equiv_pos_as_xyz 
  x,y,z 
_cell_length_a                    44.08618531 
_cell_length_b                    44.15775375388308 
_cell_length_c                    72.42170467181863 
_cell_angle_alpha                 90.0324270262765 
_cell_angle_beta                  90.0087344418753 
_cell_angle_gamma                 90.01505254616457 
loop_ 
_atom_site_label 
_atom_site_type_symbol 
_atom_site_fract_x 
_atom_site_fract_y 
_atom_site_fract_z 
_atom_site_charge 
O1          O  0.11228276  0.86051565  0.56088662    -0.72200
O2          O  0.06163491  0.90309633  0.52221733    -0.73200
O3          O  0.05237818  0.88270509  0.55870315    -0.61800
O4          O  0.12265048  0.88055507  0.52404480    -0.70200
O5          O  0.10678333  0.83699887  0.51240011    -0.69700
O6          O  0.03629641  0.83870948  0.54770600    -0.61000
O7          O  0.04554083  0.85909143  0.51128366    -0.73500
O8          O  0.09640688  0.81715138  0.54889015    -0.72300
Cu9        Cu  0.08783266  0.88336975  0.54170389     1.04600
Cu10       Cu  0.07078763  0.83653876  0.52960985     1.04300
C11         C  0.11173004  0.83158043  0.56103110     0.94000
C12         C  0.04456412  0.88795658  0.51126451     0.93200
C13         C  0.03349051  0.86077619  0.55898666     0.85300
C14         C  0.12657717  0.85810739  0.51313490     0.91600
O15         O  0.82115067  0.78263330  0.66059595    -0.72200
O16         O  0.82511864  0.85838829  0.69088059    -0.73200
O17         O  0.85494901  0.83706995  0.65860771    -0.61800
O18         O  0.79166109  0.80329011  0.69246716    -0.70200
O19         O  0.82865532  0.78448460  0.70969267    -0.69700
O20         O  0.89178575  0.81820386  0.67588396    -0.61000
O21         O  0.86191181  0.83984680  0.70831206    -0.73500
O22         O  0.85817860  0.76370931  0.67777729    -0.72300
Cu23       Cu  0.82203280  0.82127547  0.67509061     1.04600
Cu24       Cu  0.86139107  0.80098854  0.69357413     1.04300
C25         C  0.83908882  0.76092597  0.66456925     0.94000
C26         C  0.84362423  0.86133344  0.70437118     0.93200
C27         C  0.88319686  0.83227649  0.66141795     0.85300
C28         C  0.80039467  0.78717694  0.70608421     0.91600
O29         O  0.16182163  0.66167849  0.66035390    -0.72200
O30         O  0.16058626  0.58959454  0.69306431    -0.73200
O31         O  0.13581729  0.60375442  0.65763906    -0.61800
O32         O  0.18679925  0.64846779  0.69549593    -0.70200
O33         O  0.14440628  0.66565638  0.70814025    -0.69700
O34         O  0.09463095  0.61998286  0.67214146    -0.61000
O35         O  0.11950295  0.60639101  0.70741323    -0.73500
O36         O  0.11940119  0.67880760  0.67293025    -0.72300
Cu37       Cu  0.16275615  0.62517695  0.67626368     1.04600
Cu38       Cu  0.11808686  0.64322853  0.69069466     1.04300
C39         C  0.14067758  0.68139262  0.66101356     0.94000
C40         C  0.14002794  0.58621653  0.70531995     0.93200
C41         C  0.10692560  0.60561108  0.65880290     0.85300
C42         C  0.17332103  0.66502337  0.70745291     0.91600
O43         O  0.94062520  0.58871785  0.55288849    -0.72200
O44         O  0.86577381  0.59042469  0.52142503    -0.73200
O45         O  0.88254478  0.61513931  0.55573254    -0.61800
O46         O  0.92483189  0.56364278  0.51845752    -0.70200
O47         O  0.90833924  0.52169676  0.53198218    -0.69700
O48         O  0.86756981  0.57373011  0.57043660    -0.61000
O49         O  0.84970455  0.54925025  0.53588649    -0.73500
O50         O  0.92559846  0.54640191  0.56658737    -0.72300
Cu51       Cu  0.90395492  0.59078351  0.53653448     1.04600
Cu52       Cu  0.88706660  0.54624574  0.55161514     1.04300
C53         C  0.94492228  0.56776076  0.56479037     0.94000
C54         C  0.84525990  0.57054110  0.52421737     0.93200
C55         C  0.86899683  0.60261665  0.56928698     0.85300
C56         C  0.92444418  0.53477046  0.51966708     0.91600
O57         O  0.68533891  0.61368203  0.78102469    -0.72200
O58         O  0.63513023  0.56742466  0.81824971    -0.73200
O59         O  0.65743249  0.55521345  0.78181619    -0.61800
O60         O  0.66279263  0.62555199  0.81679103    -0.70200
O61         O  0.62046391  0.64312492  0.80431910    -0.69700
O62         O  0.61619659  0.57389214  0.76863609    -0.61000
O63         O  0.59370139  0.58498943  0.80456605    -0.73500
O64         O  0.64312690  0.63249161  0.76891396    -0.72300
Cu65       Cu  0.66168749  0.58958483  0.79981602     1.04600
Cu66       Cu  0.61696507  0.60914360  0.78615942     1.04300
C67         C  0.67202841  0.63174889  0.76987173     0.94000
C68         C  0.60624025  0.56940819  0.81731230     0.93200
C69         C  0.63625148  0.55316148  0.76976691     0.85300
C70         C  0.64220198  0.64583021  0.81589839     0.91600
O71         O  0.33326454  0.54066009  0.92591590    -0.72200
O72         O  0.41205274  0.53808918  0.89865798    -0.73200
O73         O  0.38880188  0.50678494  0.92927113    -0.61800
O74         O  0.35820128  0.57258913  0.89561825    -0.70200
O75         O  0.37577001  0.60728935  0.91502963    -0.69700
O76         O  0.40903678  0.54170953  0.94752838    -0.61000
O77         O  0.43142619  0.57428728  0.91635375    -0.73500
O78         O  0.35299828  0.57391367  0.94552950    -0.72300
Cu79       Cu  0.37230187  0.53834836  0.91177281     1.04600
Cu80       Cu  0.39285578  0.57553611  0.93183346     1.04300
C81         C  0.33064564  0.55772239  0.94003940     0.94000
C82         C  0.43404123  0.55550393  0.90295925     0.93200
C83         C  0.40504779  0.51393419  0.94327326     0.85300
C84         C  0.36236550  0.60035913  0.89999088     0.91600
O85         O  0.36083136  0.86448970  0.77713525    -0.72200
O86         O  0.36183598  0.78491541  0.80391173    -0.73200
O87         O  0.32867541  0.80908870  0.77377099    -0.61800
O88         O  0.39413702  0.83960984  0.80698720    -0.70200
O89         O  0.35943303  0.85740367  0.82622523    -0.69700
O90         O  0.29363166  0.82679107  0.79291611    -0.61000
O91         O  0.32661870  0.80262359  0.82290688    -0.73500
O92         O  0.32610600  0.88287206  0.79614799    -0.72300
Cu93       Cu  0.36253215  0.82412913  0.78972817     1.04600
Cu94       Cu  0.32523005  0.84321177  0.81019076     1.04300
C95         C  0.34353156  0.88623027  0.78219493     0.94000
C96         C  0.34428564  0.78123117  0.81777056     0.93200
C97         C  0.30089372  0.81202647  0.77838163     0.85300
C98         C  0.38722608  0.85228400  0.82223497     0.91600
O99         O  0.58436960  0.87400954  0.95681361    -0.72200
O100        O  0.61396345  0.81234287  0.92071920    -0.73200
O101        O  0.63831785  0.83956115  0.95336096    -0.61800
O102        O  0.56075072  0.84693218  0.92477505    -0.70200
O103        O  0.58000513  0.88359988  0.90744340    -0.69700
O104        O  0.65807123  0.87462737  0.93509603    -0.61000
O105        O  0.63277335  0.84786239  0.90245182    -0.73500
O106        O  0.60472278  0.90987849  0.93934768    -0.72300
Cu107      Cu  0.59883737  0.84189604  0.93952934     1.04600
Cu108      Cu  0.61985188  0.88022878  0.92055631     1.04300
C109        C  0.58873060  0.90196676  0.95326634     0.94000
C110        C  0.62676142  0.82002780  0.90557373     0.93200
C111        C  0.66056408  0.85645134  0.94876425     0.85300
C112        C  0.55787665  0.86643256  0.91184854     0.91600
O113        O  0.61250316  0.32405669  0.01144268    -0.72200
O114        O  0.53866812  0.32380052  0.04404565    -0.73200
O115        O  0.55110773  0.34623666  0.00841206    -0.61800
O116        O  0.59865314  0.30206655  0.04720428    -0.70200
O117        O  0.61177743  0.34511851  0.06074958    -0.69700
O118        O  0.56630114  0.38927552  0.02112059    -0.61000
O119        O  0.55208923  0.36777034  0.05645380    -0.73500
O120        O  0.62652257  0.36675770  0.02499464    -0.72300
Cu121      Cu  0.57479863  0.32252956  0.02727454     1.04600
Cu122      Cu  0.58976442  0.36877990  0.04113796     1.04300
C123        C  0.63180887  0.34538316  0.01351141     0.94000
C124        C  0.53373806  0.34551118  0.05534341     0.93200
C125        C  0.55039186  0.37512659  0.00912532     0.85300
C126        C  0.61200355  0.31621691  0.06031350     0.91600
O127        O  0.32098837  0.34451697  0.18476171    -0.72200
O128        O  0.31476554  0.26983747  0.15360739    -0.73200
O129        O  0.28872938  0.28844245  0.18681588    -0.61800
O130        O  0.34608829  0.32468933  0.15046334    -0.70200
O131        O  0.38461879  0.30475311  0.16596998    -0.69700
O132        O  0.32736963  0.26887187  0.20247567    -0.61000
O133        O  0.35331311  0.24937730  0.16876339    -0.73500
O134        O  0.35971809  0.32501632  0.20014072    -0.72300
Cu135      Cu  0.31633174  0.30777154  0.16849750     1.04600
Cu136      Cu  0.35763376  0.28645170  0.18495929     1.04300
C137        C  0.34123684  0.34685918  0.19736841     0.94000
C138        C  0.33312044  0.24783357  0.15612001     0.93200
C139        C  0.29888160  0.27174085  0.19977201     0.85300
C140        C  0.37435691  0.31917581  0.15200916     0.91600
O141        O  0.64387767  0.14669741  0.20619817    -0.72200
O142        O  0.58759101  0.10508047  0.17106950    -0.73200
O143        O  0.61833126  0.08723367  0.20367706    -0.61800
O144        O  0.61454684  0.16366981  0.17287096    -0.70200
O145        O  0.65434821  0.14587808  0.15765268    -0.69700
O146        O  0.65729681  0.07080330  0.18720294    -0.61000
O147        O  0.62700687  0.08885767  0.15478814    -0.73500
O148        O  0.68321285  0.12940708  0.19026675    -0.72300
Cu149      Cu  0.61465336  0.12606602  0.18916272     1.04600
Cu150      Cu  0.65676752  0.10805424  0.17202536     1.04300
C151        C  0.67236071  0.14597262  0.20316650     0.94000
C152        C  0.59834805  0.09132750  0.15703585     0.93200
C153        C  0.63807003  0.06674292  0.20005006     0.85300
C154        C  0.63471443  0.16661457  0.16026352     0.91600
O155        O  0.37102256  0.08418035  0.00968437    -0.72200
O156        O  0.43830839  0.09257717  0.04672259    -0.73200
O157        O  0.43363539  0.06636430  0.01157731    -0.61800
O158        O  0.37681716  0.11043447  0.04545783    -0.70200
O159        O  0.36275054  0.06752891  0.05875944    -0.69700
O160        O  0.41747535  0.02301249  0.02352730    -0.61000
O161        O  0.42389213  0.04873749  0.05871523    -0.73500
O162        O  0.35534265  0.04164564  0.02268709    -0.72300
Cu163      Cu  0.40520430  0.08990399  0.02782667     1.04600
Cu164      Cu  0.38925918  0.04370937  0.04128367     1.04300
C165        C  0.35230517  0.06202611  0.01031691     0.94000
C166        C  0.44200025  0.07135015  0.05845495     0.93200
C167        C  0.43534095  0.03757688  0.01281705     0.85300
C168        C  0.36195448  0.09641912  0.05799764     0.91600
O169        O  0.79263375  0.31452906  0.27853395    -0.72200
O170        O  0.84654784  0.35213513  0.31707756    -0.73200
O171        O  0.81972514  0.37292459  0.28359518    -0.61800
O172        O  0.81740464  0.29554965  0.31218995    -0.70200
O173        O  0.85825006  0.27921631  0.29740176    -0.69700
O174        O  0.85995315  0.35693029  0.26808920    -0.61000
O175        O  0.88635112  0.33624609  0.30105197    -0.73500
O176        O  0.83361848  0.29836814  0.26375111    -0.72300
Cu177      Cu  0.81760229  0.33456062  0.29829258     1.04600
Cu178      Cu  0.86088821  0.31729454  0.28196602     1.04300
C179        C  0.80496422  0.29880016  0.26571009     0.94000
C180        C  0.87528966  0.34923069  0.31520235     0.93200
C181        C  0.84029342  0.37753977  0.27153916     0.85300
C182        C  0.83732052  0.27513346  0.30943952     0.91600
O183        O  0.07032335  0.38109695  0.44863042    -0.72200
O184        O  0.10422316  0.32093746  0.41380568    -0.73200
O185        O  0.12632433  0.35063462  0.44513712    -0.61800
O186        O  0.04875382  0.35134868  0.41731738    -0.70200
O187        O  0.06590924  0.38849870  0.39962411    -0.69700
O188        O  0.14450602  0.38758801  0.42769456    -0.61000
O189        O  0.12196722  0.35703354  0.39557552    -0.73500
O190        O  0.08722516  0.41887404  0.43138478    -0.72300
Cu191      Cu  0.08698201  0.34985672  0.43183704     1.04600
Cu192      Cu  0.10570593  0.38942595  0.41297674     1.04300
C193        C  0.07205638  0.40941313  0.44531443     0.94000
C194        C  0.11779004  0.32890293  0.39902717     0.93200
C195        C  0.14798757  0.36838191  0.44072420     0.85300
C196        C  0.04480380  0.37012435  0.40415100     0.91600
O197        O  0.12772977  0.07267641  0.32265118    -0.72200
O198        O  0.18430286  0.11056791  0.28521113    -0.73200
O199        O  0.15664508  0.12984432  0.31798442    -0.61800
O200        O  0.15696218  0.05213230  0.28971430    -0.70200
O201        O  0.11739799  0.06720351  0.27333020    -0.69700
O202        O  0.11615402  0.14500185  0.30239090    -0.61000
O203        O  0.14370716  0.12563493  0.26966646    -0.73500
O204        O  0.08824089  0.08724824  0.30593056    -0.72300
Cu205      Cu  0.15777516  0.09050174  0.30441186     1.04600
Cu206      Cu  0.11502518  0.10661777  0.28722370     1.04300
C207        C  0.09896236  0.07464441  0.32033925     0.94000
C208        C  0.17235540  0.12590147  0.27211051     0.93200
C209        C  0.13674608  0.14999214  0.31450313     0.85300
C210        C  0.13750783  0.04719965  0.27702238     0.91600
O211        O  0.90246426  0.03807118  0.39974211    -0.72200
O212        O  0.82051927  0.04182894  0.42552604    -0.73200
O213        O  0.84739247  0.07258070  0.39444417    -0.61800
O214        O  0.87630345  0.00817743  0.43023096    -0.70200
O215        O  0.89393654  0.04382349  0.44893354    -0.69700
O216        O  0.86527327  0.10697047  0.41383366    -0.61000
O217        O  0.83930164  0.07675958  0.44420737    -0.73500
O218        O  0.91956535  0.07371273  0.41861352    -0.72300
Cu219      Cu  0.86081291  0.03887472  0.41182116     1.04600
Cu220      Cu  0.87987194  0.07649210  0.43200534     1.04300
C221        C  0.92415090  0.05494175  0.40547694     0.94000
C222        C  0.81714754  0.06005479  0.43913321     0.93200
C223        C  0.85256309  0.10032535  0.39851150     0.85300
C224        C  0.89111105  0.01594085  0.44470249     0.91600
O225        O  0.61821795  0.34442475  0.69268022    -0.72200
O226        O  0.61903818  0.26892028  0.66234411    -0.73200
O227        O  0.64373641  0.28584487  0.69653464    -0.61800
O228        O  0.59360328  0.32706068  0.65822633    -0.70200
O229        O  0.63530221  0.34143124  0.64347110    -0.69700
O230        O  0.68577806  0.30150959  0.68283420    -0.61000
O231        O  0.66145433  0.28342596  0.64851332    -0.73500
O232        O  0.65957746  0.36046635  0.67840880    -0.72300
Cu233      Cu  0.61726062  0.30616264  0.67797412     1.04600
Cu234      Cu  0.66203079  0.32244368  0.66287463     1.04300
C235        C  0.63862932  0.36459811  0.69037579     0.94000
C236        C  0.64023452  0.26403850  0.65068323     0.93200
C237        C  0.67265426  0.28602315  0.69540658     0.85300
C238        C  0.60640167  0.33992631  0.64449258     0.91600
O239        O  0.41828196  0.37190489  0.50731793    -0.72200
O240        O  0.38123353  0.31718144  0.54519679    -0.73200
O241        O  0.36057927  0.34446238  0.51218017    -0.61800
O242        O  0.43834270  0.34399560  0.54041558    -0.70200
O243        O  0.42206361  0.38402990  0.55608805    -0.69700
O244        O  0.34325537  0.38312965  0.52853275    -0.61000
O245        O  0.36537198  0.35626110  0.56177846    -0.73500
O246        O  0.40081393  0.41095413  0.52346037    -0.72300
Cu247      Cu  0.39992565  0.34299947  0.52563701     1.04600
Cu248      Cu  0.38215331  0.38501284  0.54292814     1.04300
C249        C  0.41659968  0.40039395  0.51012852     0.94000
C250        C  0.36874592  0.32774939  0.55978075     0.93200
C251        C  0.33953295  0.36343016  0.51581776     0.85300
C252        C  0.44237978  0.36406616  0.55286270     0.91600
O253        O  0.36826537  0.09622243  0.70520454    -0.72200
O254        O  0.36438330  0.16717742  0.67017119    -0.73200
O255        O  0.34252080  0.15622140  0.70609545    -0.61800
O256        O  0.39095533  0.10905155  0.66966151    -0.70200
O257        O  0.34902987  0.09113671  0.65682985    -0.69700
O258        O  0.29993473  0.13933246  0.69357618    -0.61000
O259        O  0.32221839  0.14941444  0.65757877    -0.73500
O260        O  0.32554082  0.07964337  0.69262688    -0.72300
Cu261      Cu  0.36793408  0.13273618  0.68828396     1.04600
Cu262      Cu  0.32265828  0.11411482  0.67483724     1.04300
C263        C  0.34735201  0.07622078  0.70405192     0.94000
C264        C  0.34304490  0.16939769  0.65822436     0.93200
C265        C  0.31364160  0.15654170  0.70513564     0.85300
C266        C  0.37800311  0.09313729  0.65728262     0.91600
O267        O  0.62807536  0.03380827  0.53296666    -0.72200
O268        O  0.55140348  0.03092625  0.56413681    -0.73200
O269        O  0.56963770  0.00432799  0.53057850    -0.61800
O270        O  0.60888791  0.06038440  0.56758236    -0.70200
O271        O  0.59188490  0.09951658  0.55139936    -0.69700
O272        O  0.55146059  0.04418225  0.51568889    -0.61000
O273        O  0.53483326  0.07126045  0.54894157    -0.73500
O274        O  0.60896626  0.07276046  0.51768369    -0.72300
Cu275      Cu  0.59036719  0.03088207  0.54931729     1.04600
Cu276      Cu  0.57133264  0.07318189  0.53288921     1.04300
C277        C  0.63052454  0.05396982  0.52031436     0.94000
C278        C  0.53098725  0.05096137  0.56125380     0.93200
C279        C  0.55286966  0.01553257  0.51791153     0.85300
C280        C  0.60602334  0.08897084  0.56537307     0.91600
O281        O  0.09708075  0.34294760  0.80300862    -0.72200
O282        O  0.15587961  0.30995158  0.76628099    -0.73200
O283        O  0.12989870  0.28876444  0.79936448    -0.61800
O284        O  0.12301776  0.36555254  0.76985923    -0.70200
O285        O  0.16037845  0.38409541  0.78686064    -0.69700
O286        O  0.16737324  0.30766696  0.81620599    -0.61000
O287        O  0.19349916  0.32849167  0.78320713    -0.73500
O288        O  0.13385754  0.36188973  0.82031561    -0.72300
Cu289      Cu  0.12517309  0.32633670  0.78401991     1.04600
Cu290      Cu  0.16512857  0.34653198  0.80208699     1.04300
C291        C  0.10572836  0.35616348  0.81780381     0.94000
C292        C  0.18418242  0.31234146  0.76964879     0.93200
C293        C  0.14939916  0.28593072  0.81234825     0.85300
C294        C  0.14093199  0.38730062  0.77389075     0.91600
O295        O  0.93277566  0.34265193  0.92261156    -0.72200
O296        O  0.85270356  0.33782952  0.94893168    -0.73200
O297        O  0.87772334  0.31263271  0.91645864    -0.61800
O298        O  0.90893654  0.36703024  0.95533592    -0.70200
O299        O  0.89302579  0.40780857  0.94034423    -0.69700
O300        O  0.86133488  0.35230945  0.90059685    -0.61000
O301        O  0.83631939  0.37781131  0.93345574    -0.73500
O302        O  0.91651782  0.38316699  0.90746728    -0.72300
Cu303      Cu  0.89340170  0.33874003  0.93645723     1.04600
Cu304      Cu  0.87599833  0.38170515  0.91997251     1.04300
C305        C  0.93718057  0.36365576  0.91074840     0.94000
C306        C  0.83168056  0.35689900  0.94529384     0.93200
C307        C  0.86561023  0.32372093  0.90201920     0.85300
C308        C  0.90778993  0.39574283  0.95363764     0.91600
O309        O  0.88447422  0.10725154  0.79958624    -0.72200
O310        O  0.82306077  0.13802767  0.76403197    -0.73200
O311        O  0.85033532  0.16079443  0.79593070    -0.61800
O312        O  0.85704133  0.08336990  0.76743220    -0.70200
O313        O  0.82039104  0.06514515  0.78510868    -0.69700
O314        O  0.81474394  0.14202608  0.81422975    -0.61000
O315        O  0.78644539  0.12078367  0.78228940    -0.73500
O316        O  0.84915414  0.08775568  0.81773880    -0.72300
Cu317      Cu  0.85497039  0.12286695  0.78113688     1.04600
Cu318      Cu  0.81635579  0.10292893  0.80035803     1.04300
C319        C  0.87707294  0.09349528  0.81443201     0.94000
C320        C  0.79504741  0.13609281  0.76824209     0.93200
C321        C  0.83171361  0.16397489  0.80934427     0.85300
C322        C  0.83945057  0.06165108  0.77193669     0.91600
O323        O  0.09978757  0.01406692  0.92561101    -0.72200
O324        O  0.13141971  0.07998038  0.89229094    -0.73200
O325        O  0.15514961  0.04732705  0.92264551    -0.61800
O326        O  0.07681080  0.04618825  0.89473831    -0.70200
O327        O  0.05890516  0.08115528  0.91374560    -0.69700
O328        O  0.13793234  0.08225729  0.94189432    -0.61000
O329        O  0.11378463  0.11462077  0.91165693    -0.73500
O330        O  0.08237835  0.04921129  0.94467176    -0.72300
Cu331      Cu  0.11651835  0.04564072  0.90822791     1.04600
Cu332      Cu  0.09761366  0.08294233  0.92869664     1.04300
C333        C  0.08551363  0.02136495  0.94034696     0.94000
C334        C  0.12730455  0.10777741  0.89666316     0.93200
C335        C  0.15944150  0.06512226  0.93631847     0.85300
C336        C  0.05539990  0.06382539  0.89969830     0.91600
O337        O  0.32894123  0.62224112  0.31377748    -0.72200
O338        O  0.33053813  0.54722479  0.28321227    -0.73200
O339        O  0.35898354  0.56651213  0.31673062    -0.61800
O340        O  0.30016306  0.60456965  0.28144029    -0.70200
O341        O  0.33821278  0.62240584  0.26454085    -0.69700
O342        O  0.39636921  0.58506595  0.29972244    -0.61000
O343        O  0.36840888  0.56490588  0.26633732    -0.73500
O344        O  0.36667946  0.64150895  0.29732761    -0.72300
Cu345      Cu  0.32837168  0.58421310  0.29922896     1.04600
Cu346      Cu  0.36881501  0.60387835  0.28133674     1.04300
C347        C  0.34713313  0.64398923  0.31029633     0.94000
C348        C  0.34946933  0.54378375  0.26998111     0.93200
C349        C  0.38721152  0.57142338  0.31425443     0.85300
C350        C  0.30994092  0.62109155  0.26825758     0.91600
O351        O  0.62999514  0.59153619  0.45324410    -0.72200
O352        O  0.55698158  0.58915856  0.41951355    -0.73200
O353        O  0.57141901  0.56398293  0.45367793    -0.61800
O354        O  0.61398010  0.61841809  0.41945558    -0.70200
O355        O  0.63428350  0.58070174  0.40358020    -0.69700
O356        O  0.59032845  0.52439302  0.43884146    -0.61000
O357        O  0.57748759  0.55041809  0.40465137    -0.73500
O358        O  0.64911379  0.55269317  0.43782134    -0.72300
Cu359      Cu  0.59263240  0.59214268  0.43702179     1.04600
Cu360      Cu  0.61370000  0.55062700  0.42080630     1.04300
C361        C  0.65146626  0.57249068  0.45055002     0.94000
C362        C  0.55553517  0.56873992  0.40695591     0.93200
C363        C  0.57231951  0.53556119  0.45098882     0.85300
C364        C  0.62989317  0.60911073  0.40591996     0.91600
O365        O  0.34822090  0.84661025  0.39506990    -0.72200
O366        O  0.38481332  0.90344027  0.43340584    -0.73200
O367        O  0.40483012  0.87558910  0.40025418    -0.61800
O368        O  0.32691655  0.87486487  0.42842644    -0.70200
O369        O  0.34362511  0.83602464  0.44482756    -0.69700
O370        O  0.42124722  0.83526315  0.41551662    -0.61000
O371        O  0.40159908  0.86310039  0.44853694    -0.73500
O372        O  0.36412677  0.80814030  0.41210692    -0.72300
Cu373      Cu  0.36543670  0.87657108  0.41377990     1.04600
Cu374      Cu  0.38301192  0.83435086  0.43086167     1.04300
C375        C  0.35131911  0.81805880  0.39753202     0.94000
C376        C  0.40048960  0.89175818  0.44647134     0.93200
C377        C  0.42514693  0.85552435  0.40314012     0.85300
C378        C  0.32285540  0.85535285  0.44118706     0.91600
O379        O  0.59483677  0.83162114  0.30263201    -0.72200
O380        O  0.66177030  0.79995417  0.27083518    -0.73200
O381        O  0.62999946  0.77700402  0.30132709    -0.61800
O382        O  0.62766555  0.85405555  0.27189941    -0.70200
O383        O  0.66247846  0.87484334  0.28999830    -0.69700
O384        O  0.66387404  0.79905286  0.31947504    -0.61000
O385        O  0.69638851  0.82014990  0.28948154    -0.73500
O386        O  0.62936540  0.85269731  0.32088984    -0.72300
Cu387      Cu  0.62729482  0.81507537  0.28596061     1.04600
Cu388      Cu  0.66410269  0.83755641  0.30558128     1.04300
C389        C  0.60168856  0.84674415  0.31707804     0.94000
C390        C  0.68937892  0.80396539  0.27553799     0.93200
C391        C  0.64833135  0.77579185  0.31497964     0.85300
C392        C  0.64475099  0.87643356  0.27611322     0.91600
O393        O  0.19976792  0.79631517  0.19036936    -0.72200
O394        O  0.14622290  0.84089027  0.15442392    -0.73200
O395        O  0.16897869  0.85308526  0.19052763    -0.61800
O396        O  0.17738327  0.78513085  0.15438096    -0.70200
O397        O  0.13634043  0.76448154  0.16669079    -0.69700
O398        O  0.12810259  0.83287786  0.20327847    -0.61000
O399        O  0.10546728  0.82054685  0.16745899    -0.73500
O400        O  0.15831439  0.77618241  0.20249403    -0.72300
Cu401      Cu  0.17451940  0.81984051  0.17211750     1.04600
Cu402      Cu  0.13070883  0.79784993  0.18547423     1.04300
C403        C  0.18717024  0.77804066  0.20169738     0.94000
C404        C  0.11749767  0.83675462  0.15488866     0.93200
C405        C  0.14754239  0.85427640  0.20240450     0.85300
C406        C  0.15781829  0.76386836  0.15476070     0.91600
O407        O  0.89641134  0.81195741  0.04812436    -0.72200
O408        O  0.94163406  0.86138229  0.01099790    -0.73200
O409        O  0.95569878  0.83708986  0.04579558    -0.61800
O410        O  0.88145938  0.83698470  0.01325970    -0.70200
O411        O  0.86648837  0.87883904  0.02742401    -0.69700
O412        O  0.94120313  0.88025735  0.05869310    -0.61000
O413        O  0.92615671  0.90426020  0.02384312    -0.73500
O414        O  0.88239261  0.85419903  0.06225958    -0.72300
Cu415      Cu  0.91926012  0.83545905  0.02899373     1.04600
Cu416      Cu  0.90333212  0.88087464  0.04344855     1.04300
C417        C  0.88277052  0.82521606  0.06139107     0.94000
C418        C  0.94233507  0.89025848  0.01191922     0.93200
C419        C  0.96040737  0.85879807  0.05717304     0.85300
C420        C  0.86165676  0.85774726  0.01569366     0.91600
O421        O  0.06910743  0.54390013  0.06665792    -0.72200
O422        O  0.13819394  0.53916635  0.03006611    -0.73200
O423        O  0.12760202  0.57132737  0.06404759    -0.61800
O424        O  0.07927519  0.51235246  0.03345474    -0.70200
O425        O  0.06048768  0.55079680  0.01744012    -0.69700
O426        O  0.10783721  0.60915485  0.04802008    -0.61000
O427        O  0.11889014  0.57786031  0.01452761    -0.73500
O428        O  0.04996654  0.58206938  0.05062717    -0.72300
Cu429      Cu  0.10442284  0.54032410  0.04904650     1.04600
Cu430      Cu  0.08373679  0.58122623  0.03206478     1.04300
C431        C  0.04831783  0.56365476  0.06421457     0.94000
C432        C  0.13957731  0.55788582  0.01660466     0.93200
C433        C  0.12452498  0.59976275  0.06125345     0.85300
C434        C  0.06139892  0.52249914  0.02103882     0.91600
O435        O  0.87157442  0.59832599  0.20696577    -0.72200
O436        O  0.87273251  0.67224679  0.17374649    -0.73200
O437        O  0.84605525  0.65797988  0.20797413    -0.61800
O438        O  0.89882346  0.61332441  0.17268198    -0.70200
O439        O  0.85821106  0.59744412  0.15742975    -0.69700
O440        O  0.80458297  0.64096495  0.19403143    -0.61000
O441        O  0.83127338  0.65548428  0.15986606    -0.73500
O442        O  0.83112182  0.58211526  0.19180519    -0.72300
Cu443      Cu  0.87368523  0.63591069  0.19093288     1.04600
Cu444      Cu  0.82988497  0.61822971  0.17536365     1.04300
C445        C  0.85121323  0.57814658  0.20428245     0.94000
C446        C  0.85179772  0.67568168  0.16166783     0.93200
C447        C  0.81726542  0.65783549  0.20613291     0.85300
C448        C  0.88706647  0.59911876  0.15911909     0.91600
C449        C  0.98627672  0.54516789  0.09934171    -0.13600
C450        C  0.97165161  0.57315030  0.10085276     0.16800
C451        C  0.98221191  0.59776390  0.09027811     0.03100
C452        C  0.00682525  0.59379926  0.07832185    -0.12100
C453        C  0.02215413  0.56594852  0.07708861    -0.03200
C454        C  0.01153420  0.54133243  0.08786110     0.02300
C455        C  0.94849368  0.57692498  0.11544532     0.09200
N456        N  0.96998573  0.62748189  0.09260936     0.65500
H457        H  0.01476552  0.61319806  0.07046056     0.18400
N458        N  0.02566628  0.51222315  0.08742271     0.76000
H459        H  0.97860457  0.52626018  0.10774346     0.09900
C460        C  0.91767903  0.58265808  0.11156304     0.03600
C461        C  0.89734823  0.58767939  0.12612341    -0.05100
C462        C  0.90719327  0.58695528  0.14456401    -0.23500
C463        C  0.93753403  0.57877552  0.14836755     0.12900
C464        C  0.95781284  0.57406203  0.13384498    -0.12600
N465        N  0.90657642  0.58309077  0.09303267     0.64600
H466        H  0.87398455  0.59349519  0.12291367     0.12400
N467        N  0.94814431  0.57506414  0.16687359     0.61200
H468        H  0.98129407  0.56858313  0.13697606     0.08600
O469        O  0.00953337  0.48943709  0.08366582    -0.40300
O470        O  0.04992939  0.50830580  0.09634934    -0.39400
O471        O  0.98141545  0.64460179  0.10470928    -0.39400
O472        O  0.95489034  0.63912938  0.07962868    -0.37100
O473        O  0.94708956  0.54915816  0.17419579    -0.38000
O474        O  0.96497861  0.59511164  0.17389506    -0.34200
O475        O  0.89511528  0.55925451  0.08641329    -0.35600
O476        O  0.90033806  0.60817492  0.08562617    -0.39900
C477        C  0.87331081  0.74770965  0.13546703    -0.13600
C478        C  0.84869277  0.75069908  0.12334028     0.16800
C479        C  0.82416376  0.73033519  0.12494928     0.03100
C480        C  0.82549351  0.70671391  0.13779492    -0.12100
C481        C  0.85077966  0.70280618  0.14943112    -0.03200
C482        C  0.87443023  0.72442034  0.14857179     0.02300
C483        C  0.85165395  0.77163906  0.10737379     0.09200
N484        N  0.79777788  0.73317071  0.11360159     0.65500
H485        H  0.80653560  0.69102619  0.13842257     0.18400
N486        N  0.90025967  0.72268827  0.16040992     0.76000
H487        H  0.89272490  0.76271102  0.13417395     0.09900
C488        C  0.85895437  0.80258391  0.10956467     0.03600
C489        C  0.86715143  0.81993780  0.09417544    -0.05100
C490        C  0.86905962  0.80702451  0.07649261    -0.23500
C491        C  0.86050166  0.77634510  0.07420926     0.12900
C492        C  0.85183946  0.75916636  0.08956550    -0.12600
N493        N  0.85928954  0.81655676  0.12736243     0.64600
H494        H  0.87365332  0.84339874  0.09631276     0.12400
N495        N  0.86113760  0.76190152  0.05655281     0.61200
H496        H  0.84698637  0.73526062  0.08764405     0.08600
O497        O  0.90107403  0.73896220  0.17472939    -0.40300
O498        O  0.92456126  0.71138602  0.15431272    -0.39400
O499        O  0.79394476  0.71490328  0.10039721    -0.39400
O500        O  0.77525519  0.74766941  0.11971863    -0.37100
O501        O  0.88354956  0.74548358  0.05239476    -0.38000
O502        O  0.83661161  0.75862985  0.04778970    -0.34200
O503        O  0.88445150  0.82148889  0.13511815    -0.35600
O504        O  0.83632215  0.83132707  0.13254126    -0.39900
C505        C  0.02500205  0.88280879  0.08894943    -0.13600
C506        C  0.03705437  0.85461973  0.09384005     0.16800
C507        C  0.02498903  0.82813266  0.08583547     0.03100
C508        C  0.00078147  0.83025443  0.07343391    -0.12100
C509        C  0.98780195  0.85835084  0.06902217    -0.03200
C510        C  0.00060942  0.88497571  0.07665387     0.02300
C511        C  0.05906710  0.85322850  0.10915869     0.09200
N512        N  0.03552215  0.79879158  0.09110742     0.65500
H513        H  0.99119139  0.80950919  0.06786336     0.18400
N514        N  0.98952572  0.91438238  0.07195888     0.76000
H515        H  0.03413492  0.90329854  0.09513124     0.09900
C516        C  0.08999434  0.84666424  0.10636191     0.03600
C517        C  0.10936609  0.84418705  0.12157379    -0.05100
C518        C  0.09832311  0.84756459  0.13961957    -0.23500
C519        C  0.06768641  0.85571775  0.14232204     0.12900
C520        C  0.04845006  0.85864112  0.12709043    -0.12600
N521        N  0.10199460  0.84181793  0.08828672     0.64600
H522        H  0.13284288  0.83767284  0.11927233     0.12400
N523        N  0.05569187  0.86080283  0.16039281     0.61200
H524        H  0.02474759  0.86435580  0.12930970     0.08600
O525        O  0.00324081  0.92951484  0.05976625    -0.40300
O526        O  0.97206918  0.92790959  0.08303613    -0.39400
O527        O  0.02154221  0.78461899  0.10361099    -0.39400
O528        O  0.05217717  0.78416920  0.08009939    -0.37100
O529        O  0.05459001  0.88749128  0.16659647    -0.38000
O530        O  0.03967425  0.84054832  0.16787183    -0.34200
O531        O  0.11465157  0.86360083  0.08006670    -0.35600
O532        O  0.10780585  0.81512940  0.08316581    -0.39900
C533        C  0.15664556  0.63756615  0.10432008    -0.13600
C534        C  0.15227087  0.66818303  0.10000227     0.16800
C535        C  0.14364645  0.67603390  0.08185375     0.03100
C536        C  0.13674007  0.65326801  0.06909452    -0.12100
C537        C  0.13842439  0.62245426  0.07389670    -0.03200
C538        C  0.14999466  0.61473511  0.09150956     0.02300
C539        C  0.15562084  0.69142476  0.11470932     0.09200
N540        N  0.14030280  0.70694791  0.07637244     0.65500
H541        H  0.12874727  0.65995029  0.05550442     0.18400
N542        N  0.15409398  0.58394937  0.09696902     0.76000
H543        H  0.16468227  0.63124106  0.11796263     0.09900
C544        C  0.13845455  0.68997377  0.13114333     0.03600
C545        C  0.14030575  0.71337511  0.14407397    -0.05100
C546        C  0.15931763  0.73845920  0.14126996    -0.23500
C547        C  0.17806073  0.73888015  0.12534771     0.12900
C548        C  0.17584763  0.71556770  0.11226156    -0.12600
N549        N  0.11824813  0.66536822  0.13473722     0.64600
H550        H  0.12622843  0.71197824  0.15633539     0.12400
N551        N  0.19919107  0.76278385  0.12200410     0.61200
H552        H  0.19006056  0.71638668  0.10003993     0.08600
O553        O  0.13440222  0.57149353  0.10707362    -0.40300
O554        O  0.18011046  0.57222686  0.09569873    -0.39400
O555        O  0.16088514  0.71917231  0.06682747    -0.39400
O556        O  0.11441985  0.71909191  0.07698199    -0.37100
O557        O  0.22655114  0.75915474  0.12662787    -0.38000
O558        O  0.19262981  0.78299021  0.11035667    -0.34200
O559        O  0.12629423  0.64494973  0.14589788    -0.35600
O560        O  0.09048501  0.66828703  0.13091065    -0.39900
C561        C  0.75089750  0.74878156  0.26332793    -0.13600
C562        C  0.74921666  0.74954746  0.24406354     0.16800
C563        C  0.73066922  0.77101175  0.23522189     0.03100
C564        C  0.71241641  0.79004674  0.24583986    -0.12100
C565        C  0.71293074  0.78826826  0.26512966    -0.03200
C566        C  0.73297964  0.76805186  0.27397139     0.02300
C567        C  0.76600131  0.72660562  0.23366216     0.09200
N568        N  0.72939143  0.77308169  0.21556105     0.65500
H569        H  0.69701352  0.80559026  0.23899788     0.18400
N570        N  0.73334845  0.76477314  0.29360365     0.76000
H571        H  0.76536052  0.73230585  0.27012028     0.09900
C572        C  0.79606035  0.73181733  0.22832080     0.03600
C573        C  0.81250116  0.70865767  0.21988431    -0.05100
C574        C  0.79935811  0.68004125  0.21674962    -0.23500
C575        C  0.76920446  0.67476298  0.22248803     0.12900
C576        C  0.75278219  0.69814156  0.23087488    -0.12600
N577        N  0.81016944  0.76044184  0.23165744     0.64600
H578        H  0.83550810  0.71329017  0.21545992     0.12400
N579        N  0.75552385  0.64553992  0.22099348     0.61200
H580        H  0.72989436  0.69390343  0.23562171     0.08600
O581        O  0.75426915  0.77722262  0.30276194    -0.40300
O582        O  0.71819443  0.74370856  0.30092018    -0.39400
O583        O  0.70927469  0.75847044  0.20694323    -0.39400
O584        O  0.74266129  0.79477051  0.20760013    -0.37100
O585        O  0.75706164  0.62774777  0.23459416    -0.38000
O586        O  0.73526914  0.64128372  0.20895955    -0.34200
O587        O  0.82106845  0.76615351  0.24738950    -0.35600
O588        O  0.80704686  0.78157588  0.22010004    -0.39900
C589        C  0.49617841  0.83317667  0.37652157    -0.13600
C590        C  0.50579579  0.86144836  0.36993632     0.16800
C591        C  0.48894282  0.88750048  0.37446853     0.03100
C592        C  0.46321464  0.88490755  0.38560098    -0.12100
C593        C  0.45333382  0.85663432  0.39210128    -0.03200
C594        C  0.47002209  0.83044534  0.38735285     0.02300
C595        C  0.53168027  0.86249613  0.35697009     0.09200
N596        N  0.49744663  0.91672220  0.36780141     0.65500
H597        H  0.45066911  0.90533418  0.38906557     0.18400
N598        N  0.45942286  0.80081592  0.39196175     0.76000
H599        H  0.50834661  0.81279696  0.37247888     0.09900
C600        C  0.56081432  0.85284295  0.36238639     0.03600
C601        C  0.58364035  0.84958476  0.34917691    -0.05100
C602        C  0.57790355  0.85509834  0.33044605    -0.23500
C603        C  0.54905814  0.86579563  0.32506529     0.12900
C604        C  0.52629859  0.86958005  0.33837694    -0.12600
N605        N  0.56732190  0.84533332  0.38115452     0.64600
H606        H  0.60570040  0.84118293  0.35352274     0.12400
N607        N  0.54257814  0.87311272  0.30626402     0.61200
H608        H  0.50384400  0.87685645  0.33402870     0.08600
O609        O  0.47378401  0.78538942  0.40373063    -0.40300
O610        O  0.44140212  0.78755466  0.38108851    -0.39400
O611        O  0.48308347  0.92795534  0.35437778    -0.39400
O612        O  0.51261033  0.93401248  0.37816203    -0.37100
O613        O  0.54457071  0.90031760  0.30107611    -0.38000
O614        O  0.52786237  0.85453436  0.29650740    -0.34200
O615        O  0.56833223  0.81783868  0.38586005    -0.35600
O616        O  0.57938257  0.86500726  0.39144354    -0.39900
C617        C  0.63843033  0.69687984  0.33558972    -0.13600
C618        C  0.65661127  0.69969136  0.35135640     0.16800
C619        C  0.67456375  0.72562428  0.35376273     0.03100
C620        C  0.67223595  0.74933279  0.34123256    -0.12100
C621        C  0.65212201  0.74795846  0.32616780    -0.03200
C622        C  0.63624161  0.72061049  0.32283433     0.02300
C623        C  0.65328500  0.67736242  0.36622321     0.09200
N624        N  0.69476704  0.72859784  0.36908633     0.65500
H625        H  0.68581525  0.76941567  0.34378338     0.18400
N626        N  0.61763553  0.71649676  0.30687434     0.76000
H627        H  0.62489767  0.67657948  0.33356613     0.09900
C628        C  0.63465015  0.68394090  0.38141968     0.03600
C629        C  0.62897985  0.66167337  0.39448834    -0.05100
C630        C  0.64094726  0.63225923  0.39268721    -0.23500
C631        C  0.66063025  0.62603428  0.37773305     0.12900
C632        C  0.66655285  0.64865981  0.36460361    -0.12600
N633        N  0.61929351  0.71235959  0.38303445     0.64600
H634        H  0.61366622  0.66735681  0.40570067     0.12400
N635        N  0.67472703  0.59714826  0.37559709     0.61200
H636        H  0.68103516  0.64362387  0.35287193     0.08600
O637        O  0.58926769  0.71936586  0.30837093    -0.40300
O638        O  0.62827213  0.70226856  0.29321229    -0.39400
O639        O  0.72234406  0.72187020  0.36689825    -0.39400
O640        O  0.68741336  0.74556591  0.38236922    -0.37100
O641        O  0.66308901  0.57801460  0.36476029    -0.38000
O642        O  0.70196339  0.59389705  0.38057432    -0.34200
O643        O  0.59265854  0.71472145  0.37681851    -0.35600
O644        O  0.62854201  0.73145667  0.39471247    -0.39900
C645        C  0.25291466  0.73298767  0.22188833    -0.13600
C646        C  0.23716223  0.70870146  0.22984618     0.16800
C647        C  0.20524125  0.70936853  0.23032012     0.03100
C648        C  0.18975668  0.73319954  0.22201528    -0.12100
C649        C  0.20530684  0.75674698  0.21300856    -0.03200
C650        C  0.23737895  0.75695735  0.21349669     0.02300
C651        C  0.25430600  0.68418123  0.23894794     0.09200
N652        N  0.18808870  0.68546976  0.23857968     0.65500
H653        H  0.16513081  0.73242819  0.22205950     0.18400
N654        N  0.25457277  0.78130446  0.20582522     0.76000
H655        H  0.27754088  0.73352662  0.22236599     0.09900
C656        C  0.27643320  0.66699891  0.22952399     0.03600
C657        C  0.29347268  0.64545196  0.23914051    -0.05100
C658        C  0.28886951  0.64070147  0.25805344    -0.23500
C659        C  0.26672868  0.65796325  0.26743739     0.12900
C660        C  0.24973640  0.67936851  0.25781698    -0.12600
N661        N  0.28212357  0.67135701  0.21029312     0.64600
H662        H  0.31085245  0.63274595  0.23184587     0.12400
N663        N  0.26366769  0.65677307  0.28704850     0.61200
H664        H  0.23379231  0.69343295  0.26539677     0.08600
O665        O  0.26773708  0.77758399  0.19052240    -0.40300
O666        O  0.26286740  0.80271225  0.21621605    -0.39400
O667        O  0.17582813  0.68982263  0.25410318    -0.39400
O668        O  0.17876855  0.66400795  0.22856736    -0.37100
O669        O  0.27586341  0.67736030  0.29658069    -0.38000
O670        O  0.24227288  0.64156758  0.29396423    -0.34200
O671        O  0.30496761  0.68657927  0.20538057    -0.35600
O672        O  0.26957418  0.65397448  0.19876305    -0.39900
C673        C  0.42500359  0.55953228  0.36090843    -0.13600
C674        C  0.45525021  0.56489648  0.35602832     0.16800
C675        C  0.46307936  0.56800188  0.33731945     0.03100
C676        C  0.44058376  0.56726808  0.32388555    -0.12100
C677        C  0.40989634  0.56397027  0.32863182    -0.03200
C678        C  0.40222896  0.55879955  0.34738945     0.02300
C679        C  0.47897847  0.56514523  0.37030266     0.09200
N680        N  0.49367611  0.57350084  0.33177345     0.65500
H681        H  0.44725675  0.57085108  0.30962875     0.18400
N682        N  0.37167404  0.55336242  0.35307274     0.76000
H683        H  0.41905782  0.55600151  0.37529505     0.09900
C684        C  0.48246548  0.58948639  0.38267930     0.03600
C685        C  0.50716415  0.58993552  0.39479804    -0.05100
C686        C  0.52848722  0.56630561  0.39489614    -0.23500
C687        C  0.52373368  0.54105927  0.38310321     0.12900
C688        C  0.49929198  0.54094641  0.37089089    -0.12600
N689        N  0.46180756  0.61438688  0.38265079     0.64600
H690        H  0.51000770  0.60934138  0.40386744     0.12400
N691        N  0.54311146  0.51512578  0.38340459     0.61200
H692        H  0.49625179  0.52180482  0.36161449     0.08600
O693        O  0.35706936  0.57429877  0.36092301    -0.40300
O694        O  0.36268721  0.52637839  0.35482700    -0.39400
O695        O  0.50838280  0.55259585  0.32396699    -0.39400
O696        O  0.50277638  0.60047762  0.33025040    -0.37100
O697        O  0.53571876  0.49261653  0.39314742    -0.38000
O698        O  0.56237459  0.51168403  0.37068904    -0.34200
O699        O  0.44194485  0.61609249  0.39515123    -0.35600
O700        O  0.46809264  0.63766520  0.37330836    -0.39900
C701        C  0.33418562  0.77837262  0.35186038    -0.13600
C702        C  0.33495417  0.74809814  0.35763442     0.16800
C703        C  0.33793283  0.74143320  0.37651696     0.03100
C704        C  0.34055113  0.76492172  0.38923528    -0.12100
C705        C  0.34164345  0.79537228  0.38357746    -0.03200
C706        C  0.33763648  0.80208743  0.36461676     0.02300
C707        C  0.33652766  0.72361587  0.34384651     0.09200
N708        N  0.34164130  0.71098292  0.38282732     0.65500
H709        H  0.34369556  0.75895398  0.40365424     0.18400
N710        N  0.33911559  0.83241891  0.35785153     0.76000
H711        H  0.33230451  0.78356489  0.33724871     0.09900
C712        C  0.31248463  0.70311581  0.34139507     0.03600
C713        C  0.31672532  0.67749344  0.33045424    -0.05100
C714        C  0.34431480  0.67215332  0.32127535    -0.23500
C715        C  0.36796133  0.69358937  0.32307132     0.12900
C716        C  0.36387876  0.71895722  0.33441673    -0.12600
N717        N  0.28346404  0.70823253  0.34960715     0.64600
H718        H  0.29800036  0.66164978  0.32911265     0.12400
N719        N  0.39681647  0.68910170  0.31454133     0.61200
H720        H  0.38261722  0.73462974  0.33641057     0.08600
O721        O  0.31475946  0.84626644  0.35434299    -0.40300
O722        O  0.36360175  0.84189555  0.35091754    -0.39400
O723        O  0.36805825  0.70014145  0.38398174    -0.39400
O724        O  0.32041526  0.69852829  0.39169815    -0.37100
O725        O  0.41805819  0.67754477  0.32385078    -0.38000
O726        O  0.40307471  0.70339137  0.29994633    -0.34200
O727        O  0.26322607  0.72131943  0.34022334    -0.35600
O728        O  0.27565642  0.69262981  0.36339578    -0.39900
C729        C  0.98311504  0.95146140  0.98427449    -0.13600
C730        C  0.01049885  0.93673135  0.97998170     0.16800
C731        C  0.01466120  0.90657647  0.98582467     0.03100
C732        C  0.99134278  0.89174457  0.99532144    -0.12100
C733        C  0.96426390  0.90670339  0.00006490    -0.03200
C734        C  0.96043428  0.93712036  0.99460040     0.02300
C735        C  0.03471153  0.95479168  0.97089933     0.09200
N736        N  0.04320466  0.89157701  0.98393858     0.65500
H737        H  0.99532861  0.86876597  0.00003010     0.18400
N738        N  0.93410615  0.95405772  0.99963847     0.76000
H739        H  0.97973911  0.97480817  0.98008875     0.09900
C740        C  0.04594945  0.94813761  0.95308742     0.03600
C741        C  0.06418973  0.96936614  0.94389293    -0.05100
C742        C  0.07101692  0.99757779  0.95188975    -0.23500
C743        C  0.06119285  0.00329750  0.97016219     0.12900
C744        C  0.04361104  0.98184370  0.97944894    -0.12600
N745        N  0.03716611  0.92128089  0.94347090     0.64600
H746        H  0.07138345  0.96442936  0.92985127     0.12400
N747        N  0.06781596  0.03116201  0.97934886     0.61200
H748        H  0.03541293  0.98711938  0.99324828     0.08600
O749        O  0.91362383  0.95834360  0.98775660    -0.40300
O750        O  0.93526091  0.97109684  0.01361924    -0.39400
O751        O  0.06260976  0.89467052  0.99661403    -0.39400
O752        O  0.04501186  0.86882675  0.97344950    -0.37100
O753        O  0.08933701  0.03204466  0.99082190    -0.38000
O754        O  0.04793594  0.05171721  0.97969138    -0.34200
O755        O  0.01390645  0.92200960  0.93332750    -0.35600
O756        O  0.05677303  0.90096340  0.94070762    -0.39900
C757        C  0.99343579  0.04839302  0.86393605    -0.13600
C758        C  0.97492006  0.07377502  0.86639344     0.16800
C759        C  0.98175214  0.09459755  0.88049159     0.03100
C760        C  0.00739569  0.09020687  0.89154053    -0.12100
C761        C  0.02682393  0.06536477  0.88877523    -0.03200
C762        C  0.01916887  0.04388603  0.87494447     0.02300
C763        C  0.94958606  0.07879565  0.85342300     0.09200
N764        N  0.96345129  0.12084025  0.88340684     0.65500
H765        H  0.01259371  0.10705136  0.90199035     0.18400
N766        N  0.03697980  0.01734412  0.87182736     0.76000
H767        H  0.98808624  0.03213075  0.85316068     0.09900
C768        C  0.95485887  0.09252195  0.83624465     0.03600
C769        C  0.93105859  0.09613572  0.82379321    -0.05100
C770        C  0.90153582  0.08603937  0.82788532    -0.23500
C771        C  0.89651258  0.07113464  0.84495629     0.12900
C772        C  0.92051723  0.06791601  0.85759290    -0.12600
N773        N  0.98443280  0.10272282  0.83112964     0.64600
H774        H  0.93595520  0.10736475  0.81080064     0.12400
N775        N  0.86770225  0.05836990  0.84952374     0.61200
H776        H  0.91656614  0.05643067  0.87063084     0.08600
O777        O  0.05411104  0.01629171  0.85788276    -0.40300
O778        O  0.02933795  0.99293291  0.87959610    -0.39400
O779        O  0.94540239  0.12138445  0.89692178    -0.39400
O780        O  0.97086903  0.14541739  0.87575993    -0.37100
O781        O  0.86292361  0.03074058  0.84612908    -0.38000
O782        O  0.85084759  0.07190687  0.86093273    -0.34200
O783        O  0.00001905  0.08691313  0.82014464    -0.35600
O784        O  0.99144946  0.13011088  0.83366945    -0.39900
C785        C  0.94586824  0.46241356  0.97736520    -0.13600
C786        C  0.97247854  0.44845676  0.98375817     0.16800
C787        C  0.97549582  0.41677457  0.98210846     0.03100
C788        C  0.95270219  0.40006691  0.97357644    -0.12100
C789        C  0.92706388  0.41421112  0.96594027    -0.03200
C790        C  0.92345542  0.44573317  0.96819573     0.02300
C791        C  0.99630470  0.46697093  0.99270927     0.09200
N792        N  0.00241222  0.40136912  0.98787628     0.65500
H793        H  0.95630896  0.37589780  0.97183788     0.18400
N794        N  0.89744399  0.46120801  0.96121578     0.76000
H795        H  0.94253515  0.48655520  0.97935109     0.09900
C796        C  0.00800802  0.49341440  0.98439797     0.03600
C797        C  0.02961883  0.51077571  0.99372984    -0.05100
C798        C  0.04064681  0.50192166  0.01107958    -0.23500
C799        C  0.02947012  0.47499305  0.01912357     0.12900
C800        C  0.00701599  0.45835385  0.01011484    -0.12600
N801        N  0.99890985  0.50249955  0.96629441     0.64600
H802        H  0.03802400  0.53131529  0.98722652     0.12400
N803        N  0.03936023  0.46486098  0.03682328     0.61200
H804        H  0.99757123  0.43860264  0.01697881     0.08600
O805        O  0.87504125  0.46552545  0.97173163    -0.40300
O806        O  0.89988133  0.47673258  0.94666834    -0.39400
O807        O  0.00129065  0.38385877  0.00162983    -0.39400
O808        O  0.02443874  0.39933425  0.97682400    -0.37100
O809        O  0.02127074  0.46683000  0.05023625    -0.38000
O810        O  0.06096561  0.44618972  0.03771917    -0.34200
O811        O  0.98163275  0.52507655  0.96442930    -0.35600
O812        O  0.01384326  0.49319456  0.95255948    -0.39900
C813        C  0.86496504  0.25745328  0.86882495    -0.13600
C814        C  0.84355238  0.26705070  0.85588419     0.16800
C815        C  0.82825219  0.29465798  0.85852963     0.03100
C816        C  0.83547020  0.31272283  0.87379037    -0.12100
C817        C  0.85740853  0.30338454  0.88664882    -0.03200
C818        C  0.87210474  0.27517546  0.88408544     0.02300
C819        C  0.83664025  0.24621811  0.84065046     0.09200
N820        N  0.80576135  0.30482286  0.84578152     0.65500
H821        H  0.82381868  0.33420375  0.87557739     0.18400
N822        N  0.89512673  0.26451012  0.89636667     0.76000
H823        H  0.87629010  0.23575875  0.86706578     0.09900
C824        C  0.85926822  0.23849021  0.82779346     0.03600
C825        C  0.85602895  0.21253214  0.81711422    -0.05100
C826        C  0.83110465  0.19312602  0.81940757    -0.23500
C827        C  0.80747996  0.20185199  0.83162204     0.12900
C828        C  0.81035821  0.22860318  0.84185051    -0.12600
N829        N  0.88691976  0.25526185  0.82657557     0.64600
H830        H  0.87441660  0.20659518  0.80777095     0.12400
N831        N  0.78123018  0.18345139  0.83460720     0.61200
H832        H  0.79309018  0.23422404  0.85204057     0.08600
O833        O  0.92260226  0.26746497  0.89182135    -0.40300
O834        O  0.88816683  0.24544581  0.90863274    -0.39400
O835        O  0.77810283  0.30240920  0.85001365    -0.39400
O836        O  0.81337846  0.32264220  0.83298348    -0.37100
O837        O  0.78258838  0.16247698  0.84640234    -0.38000
O838        O  0.75554241  0.19381755  0.83023090    -0.34200
O839        O  0.91015519  0.24545606  0.83481402    -0.35600
O840        O  0.89016219  0.27413416  0.81365502    -0.39900
C841        C  0.00189295  0.39010086  0.88012081    -0.13600
C842        C  0.01443353  0.36233563  0.87482624     0.16800
C843        C  0.00358761  0.33538212  0.88290361     0.03100
C844        C  0.97939472  0.33656433  0.89537164    -0.12100
C845        C  0.96556642  0.36420881  0.89989380    -0.03200
C846        C  0.97765230  0.39131757  0.89255635     0.02300
C847        C  0.03772506  0.36211570  0.86020439     0.09200
N848        N  0.01675276  0.30667008  0.87858198     0.65500
H849        H  0.97060630  0.31549993  0.90098173     0.18400
N850        N  0.96583279  0.42024946  0.89766909     0.76000
H851        H  0.01055701  0.41098807  0.87419964     0.09900
C852        C  0.03003700  0.35465727  0.84192976     0.03600
C853        C  0.05227610  0.35496329  0.82826249    -0.05100
C854        C  0.08261185  0.36230883  0.83231469    -0.23500
C855        C  0.08990350  0.37156215  0.85054081     0.12900
C856        C  0.06738572  0.37138204  0.86425444    -0.12600
N857        N  0.99965111  0.34688563  0.83694632     0.64600
H858        H  0.04565155  0.34844427  0.81436942     0.12400
N859        N  0.11990977  0.38061795  0.85554191     0.61200
H860        H  0.07319097  0.37812927  0.87825170     0.08600
O861        O  0.94915443  0.43437666  0.88643728    -0.40300
O862        O  0.97808729  0.43454324  0.91079316    -0.39400
O863        O  0.03663488  0.29591156  0.88925398    -0.39400
O864        O  0.00290313  0.28902543  0.86777356    -0.37100
O865        O  0.12584038  0.40847737  0.85701845    -0.38000
O866        O  0.13735779  0.36158775  0.86302322    -0.34200
O867        O  0.98257228  0.36713488  0.83040444    -0.35600
O868        O  0.99303311  0.31944325  0.83424256    -0.39900
C869        C  0.17403630  0.22138997  0.84399645    -0.13600
C870        C  0.14750767  0.20390008  0.84436793     0.16800
C871        C  0.12211255  0.21333443  0.83407899     0.03100
C872        C  0.12381342  0.23956240  0.82340172    -0.12100
C873        C  0.15010109  0.25748536  0.82315935    -0.03200
C874        C  0.17552644  0.24816420  0.83366680     0.02300
C875        C  0.14542234  0.17843620  0.85750096     0.09200
N876        N  0.09359818  0.19814511  0.83554064     0.65500
H877        H  0.10372256  0.24667198  0.81589590     0.18400
N878        N  0.20288360  0.26551643  0.83417574     0.76000
H879        H  0.19347601  0.21460301  0.85221879     0.09900
C880        C  0.14283368  0.14806750  0.85172039     0.03600
C881        C  0.13863938  0.12523671  0.86485464    -0.05100
C882        C  0.13655081  0.13207975  0.88375092    -0.23500
C883        C  0.14069909  0.16244349  0.88952061     0.12900
C884        C  0.14515790  0.18515394  0.87637780    -0.12600
N885        N  0.14430195  0.13994696  0.83264595     0.64600
H886        H  0.13579500  0.10207277  0.86009752     0.12400
N887        N  0.14024829  0.17081063  0.90858088     0.61200
H888        H  0.14760992  0.20847971  0.88094533     0.08600
O889        O  0.22445702  0.25843327  0.82357336    -0.40300
O890        O  0.20815271  0.28216954  0.84797948    -0.39400
O891        O  0.07530294  0.20634510  0.84797335    -0.39400
O892        O  0.08352550  0.18390146  0.82173524    -0.37100
O893        O  0.16507740  0.17378914  0.91706390    -0.38000
O894        O  0.11671789  0.18303302  0.91512918    -0.34200
O895        O  0.16944847  0.13181000  0.82597483    -0.35600
O896        O  0.12023825  0.13227330  0.82445562    -0.39900
C897        C  0.50392504  0.94987685  0.50149616    -0.13600
C898        C  0.48928918  0.96276917  0.48621107     0.16800
C899        C  0.49689046  0.99257764  0.48094749     0.03100
C900        C  0.51848651  0.00877171  0.49105735    -0.12100
C901        C  0.53323368  0.99588592  0.50636494    -0.03200
C902        C  0.52609488  0.96574038  0.51133709     0.02300
C903        C  0.46604029  0.94477610  0.47620666     0.09200
N904        N  0.48330908  0.00665726  0.46522900     0.65500
H905        H  0.52355448  0.03186723  0.48688038     0.18400
N906        N  0.54057455  0.95093370  0.52649462     0.76000
H907        H  0.49779776  0.92724623  0.50606335     0.09900
C908        C  0.47237548  0.91511304  0.47009477     0.03600
C909        C  0.44991755  0.89828006  0.46132116    -0.05100
C910        C  0.42105260  0.91037379  0.45790966    -0.23500
C911        C  0.41435353  0.93986768  0.46420591     0.12900
C912        C  0.43676064  0.95662141  0.47348479    -0.12600
N913        N  0.50198454  0.90221075  0.47175012     0.64600
H914        H  0.45573848  0.87580011  0.45631703     0.12400
N915        N  0.38484248  0.95267948  0.46198455     0.61200
H916        H  0.43110722  0.97894019  0.47877782     0.08600
O917        O  0.52686240  0.94894110  0.54172780    -0.40300
O918        O  0.56275112  0.93362755  0.52335702    -0.39400
O919        O  0.46360666  0.02700526  0.46765776    -0.39400
O920        O  0.49642259  0.00474215  0.44979028    -0.37100
O921        O  0.36602331  0.95051653  0.47504800    -0.38000
O922        O  0.38073772  0.97255375  0.44972758    -0.34200
O923        O  0.50648897  0.88167491  0.48355081    -0.35600
O924        O  0.52038349  0.90508627  0.45852505    -0.39900
C925        C  0.21853784  0.25944851  0.73391430    -0.13600
C926        C  0.24148040  0.24562842  0.74438033     0.16800
C927        C  0.24767982  0.25693220  0.76224785     0.03100
C928        C  0.23014064  0.28048590  0.76949864    -0.12100
C929        C  0.20598019  0.29303261  0.75947633    -0.03200
C930        C  0.20064016  0.28271301  0.74129893     0.02300
C931        C  0.25989198  0.22100918  0.73591300     0.09200
N932        N  0.27058550  0.24375209  0.77365672     0.65500
H933        H  0.23437373  0.28769957  0.78361234     0.18400
N934        N  0.17768620  0.29600159  0.72998613     0.76000
H935        H  0.21457608  0.25227886  0.71977233     0.09900
C936        C  0.24639960  0.19532433  0.72762228     0.03600
C937        C  0.26442011  0.17421555  0.71823928    -0.05100
C938        C  0.29595540  0.17793502  0.71681771    -0.23500
C939        C  0.30948612  0.20340072  0.72548033     0.12900
C940        C  0.29141130  0.22447551  0.73481519    -0.12600
N941        N  0.21443193  0.19023324  0.72858720     0.64600
H942        H  0.25342962  0.15486858  0.71178520     0.12400
N943        N  0.34124716  0.20939927  0.72404772     0.61200
H944        H  0.30211105  0.24454858  0.74058981     0.08600
O945        O  0.15392817  0.28110920  0.72650794    -0.40300
O946        O  0.18454149  0.31817980  0.71982824    -0.39400
O947        O  0.29481338  0.25825146  0.77650603    -0.39400
O948        O  0.26337473  0.22265059  0.78454583    -0.37100
O949        O  0.35073294  0.22626989  0.71122696    -0.38000
O950        O  0.35811202  0.20444007  0.73779662    -0.34200
O951        O  0.19834183  0.19532643  0.71451239    -0.35600
O952        O  0.20409170  0.17339621  0.74116956    -0.39900
C953        C  0.46406523  0.02963033  0.59194684    -0.13600
C954        C  0.45284715  0.05843392  0.59624716     0.16800
C955        C  0.46595747  0.08413781  0.58801238     0.03100
C956        C  0.49067841  0.08082286  0.57620961    -0.12100
C957        C  0.50316671  0.05221501  0.57259797    -0.03200
C958        C  0.48908460  0.02627873  0.58016699     0.02300
C959        C  0.43247292  0.06212000  0.61215245     0.09200
N960        N  0.45589675  0.11395030  0.59262901     0.65500
H961        H  0.50109987  0.10108024  0.57053579     0.18400
N962        N  0.49932869  0.99648918  0.57575867     0.76000
H963        H  0.45415901  0.00974296  0.59839782     0.09900
C964        C  0.40070404  0.06303484  0.61048375     0.03600
C965        C  0.38305944  0.07101846  0.62581452    -0.05100
C966        C  0.39671249  0.07873724  0.64273300    -0.23500
C967        C  0.42860180  0.07587273  0.64450398     0.12900
C968        C  0.44595948  0.06744620  0.62927966    -0.12600
N969        N  0.38616995  0.05750946  0.59318827     0.64600
H970        H  0.35865644  0.07295909  0.62409647     0.12400
N971        N  0.44406191  0.08261822  0.66135304     0.61200
H972        H  0.47050650  0.06644252  0.63062445     0.08600
O973        O  0.51640239  0.98276353  0.58695572    -0.40300
O974        O  0.48503322  0.98144674  0.56376706    -0.39400
O975        O  0.46993933  0.12873375  0.60485630    -0.39400
O976        O  0.43848202  0.12778483  0.58168330    -0.37100
O977        O  0.45142910  0.06113859  0.67191762    -0.38000
O978        O  0.45744838  0.10775218  0.66295420    -0.34200
O979        O  0.37333943  0.03234683  0.59049019    -0.35600
O980        O  0.37954201  0.07965569  0.58295362    -0.39900
C981        C  0.50369258  0.50769021  0.47787127    -0.13600
C982        C  0.50749607  0.47631170  0.47683827     0.16800
C983        C  0.53309857  0.46453071  0.46760995     0.03100
C984        C  0.55447482  0.48424827  0.45993560    -0.12100
C985        C  0.55085563  0.51575036  0.46107853    -0.03200
C986        C  0.52492072  0.52746268  0.47026579     0.02300
C987        C  0.48389556  0.45670440  0.48509766     0.09200
N988        N  0.53780415  0.43267681  0.46583277     0.65500
H989        H  0.57389351  0.47468077  0.45276143     0.18400
N990        N  0.51872157  0.55920306  0.47129188     0.76000
H991        H  0.48346958  0.51707531  0.48428134     0.09900
C992        C  0.47493080  0.46060458  0.50364671     0.03600
C993        C  0.45158153  0.44309613  0.51085329    -0.05100
C994        C  0.43675794  0.42127086  0.50011284    -0.23500
C995        C  0.44483919  0.41792386  0.48136425     0.12900
C996        C  0.46826908  0.43574439  0.47401659    -0.12600
N997        N  0.48994743  0.48151086  0.51563385     0.64600
H998        H  0.44600858  0.44570590  0.52538574     0.12400
N999        N  0.42838317  0.39816485  0.46937351     0.61200
H1000       H  0.47380694  0.43368887  0.45946217     0.08600
O1001       O  0.52381900  0.57302732  0.48623047    -0.40300
O1002       O  0.50081819  0.57084204  0.45969357    -0.39400
O1003       O  0.53175230  0.42002573  0.45064152    -0.39400
O1004       O  0.55545283  0.41959217  0.47697901    -0.37100
O1005       O  0.40629351  0.40870290  0.46034144    -0.38000
O1006       O  0.44063248  0.37387241  0.46403397    -0.34200
O1007       O  0.47670466  0.50588328  0.51986670    -0.35600
O1008       O  0.51111132  0.47200514  0.52582400    -0.39900
C1009       C  0.35246263  0.29326821  0.60696649    -0.13600
C1010       C  0.35299621  0.26241847  0.60253410     0.16800
C1011       C  0.35566178  0.25350071  0.58396671     0.03100
C1012       C  0.35912429  0.27535216  0.57025773    -0.12100
C1013       C  0.35989948  0.30634639  0.57458677    -0.03200
C1014       C  0.35556768  0.31532817  0.59319926     0.02300
C1015       C  0.34986686  0.23976243  0.61734425     0.09200
N1016       N  0.35604666  0.22226365  0.57885426     0.65500
H1017       H  0.36205234  0.26778581  0.55610204     0.18400
N1018       N  0.35492000  0.34648643  0.59851225     0.76000
H1019       H  0.34968135  0.30025909  0.62125170     0.09900
C1020       C  0.37301525  0.23512669  0.63039908     0.03600
C1021       C  0.36958982  0.21294718  0.64394205    -0.05100
C1022       C  0.34351790  0.19469021  0.64471137    -0.23500
C1023       C  0.31981158  0.20013351  0.63185487     0.12900
C1024       C  0.32329674  0.22256012  0.61837470    -0.12600
N1025       N  0.40090216  0.25151032  0.62946826     0.64600
H1026       H  0.38818276  0.20935524  0.65353116     0.12400
N1027       N  0.29216733  0.18323654  0.63207347     0.61200
H1028       H  0.30515283  0.22643024  0.60849081     0.08600
O1029       O  0.37828627  0.35822581  0.60559561    -0.40300
O1030       O  0.32961221  0.35937625  0.60063572    -0.39400
O1031       O  0.33272183  0.21075655  0.57158453    -0.39400
O1032       O  0.38118653  0.20887389  0.57723520    -0.37100
O1033       O  0.26909367  0.19468750  0.63966523    -0.38000
O1034       O  0.28859399  0.16218992  0.62047919    -0.34200
O1035       O  0.40605548  0.27204528  0.64117812    -0.35600
O1036       O  0.42280349  0.24027962  0.62058447    -0.39900
C1037       C  0.73585755  0.19461018  0.75640438    -0.13600
C1038       C  0.73725668  0.19503031  0.73712194     0.16800
C1039       C  0.75685167  0.17449833  0.72799624     0.03100
C1040       C  0.77446455  0.15423926  0.73831447    -0.12100
C1041       C  0.77299736  0.15402748  0.75761728    -0.03200
C1042       C  0.75354901  0.17457806  0.76666123     0.02300
C1043       C  0.72059918  0.21915230  0.72712255     0.09200
N1044       N  0.75969199  0.17435586  0.70834521     0.65500
H1045       H  0.79001124  0.13906455  0.73120066     0.18400
N1046       N  0.75473385  0.17848516  0.78617916     0.76000
H1047       H  0.72237634  0.21142150  0.76370181     0.09900
C1048       C  0.68926688  0.22406150  0.72981000     0.03600
C1049       C  0.67458389  0.24721699  0.72019143    -0.05100
C1050       C  0.69042090  0.26603154  0.70785043    -0.23500
C1051       C  0.72221565  0.26249877  0.70628082     0.12900
C1052       C  0.73685691  0.23924412  0.71588729    -0.12600
N1053       N  0.67176648  0.20530121  0.74186182     0.64600
H1054       H  0.65027332  0.24965880  0.72197420     0.12400
N1055       N  0.74010438  0.28208236  0.69498820     0.61200
H1056       H  0.76128289  0.23706444  0.71465746     0.08600
O1057       O  0.73317123  0.16863404  0.79592412    -0.40300
O1058       O  0.77193942  0.19871006  0.79265033    -0.39400
O1059       O  0.78286806  0.18612046  0.70104948    -0.39400
O1060       O  0.74400436  0.15593301  0.69906010    -0.37100
O1061       O  0.75360379  0.30420616  0.70235643    -0.38000
O1062       O  0.74824055  0.27322448  0.67917934    -0.34200
O1063       O  0.66324782  0.21577768  0.75722988    -0.35600
O1064       O  0.65856782  0.18229678  0.73535815    -0.39900
C1065       C  0.57322247  0.35598689  0.59720620    -0.13600
C1066       C  0.54473913  0.36762922  0.60204143     0.16800
C1067       C  0.53809920  0.37314536  0.62078584     0.03100
C1068       C  0.55934450  0.36554150  0.63434461    -0.12100
C1069       C  0.58718258  0.35229129  0.62961298    -0.03200
C1070       C  0.59442397  0.34816822  0.61078347     0.02300
C1071       C  0.52047030  0.36766353  0.58799651     0.09200
N1072       N  0.50889679  0.38368945  0.62643178     0.65500
H1073       H  0.55340997  0.36869048  0.64877465     0.18400
N1074       N  0.62158081  0.33298470  0.60529136     0.76000
H1075       H  0.57819459  0.35096581  0.58283881     0.09900
C1076       C  0.50708950  0.39445426  0.58132263     0.03600
C1077       C  0.48210801  0.39265642  0.56948231    -0.05100
C1078       C  0.47051652  0.36454116  0.56383229    -0.23500
C1079       C  0.48507049  0.33773617  0.56969012     0.12900
C1080       C  0.50970470  0.33957827  0.58177839    -0.12600
N1081       N  0.51903866  0.42355605  0.58591743     0.64600
H1082       H  0.47165254  0.41346436  0.56466782     0.12400
N1083       N  0.47404556  0.30848630  0.56453676     0.61200
H1084       H  0.52000813  0.31882341  0.58679912     0.08600
O1085       O  0.64300913  0.34812129  0.59835765    -0.40300
O1086       O  0.62128423  0.30458206  0.60332937    -0.39400
O1087       O  0.48872585  0.36460156  0.63059622    -0.39400
O1088       O  0.50612143  0.41063936  0.63196977    -0.37100
O1089       O  0.48691836  0.29438759  0.55156050    -0.38000
O1090       O  0.45747066  0.29403356  0.57567641    -0.34200
O1091       O  0.53734944  0.43597103  0.57487519    -0.35600
O1092       O  0.50494962  0.43988236  0.59735053    -0.39900
C1093       C  0.62041665  0.13134976  0.61004849    -0.13600
C1094       C  0.63081607  0.15915233  0.60316553     0.16800
C1095       C  0.63744498  0.16179585  0.58419370     0.03100
C1096       C  0.63068331  0.13785873  0.57226674    -0.12100
C1097       C  0.61833166  0.11071774  0.57893483    -0.03200
C1098       C  0.61451681  0.10700575  0.59816392     0.02300
C1099       C  0.63351704  0.18537211  0.61580752     0.09200
N1100       N  0.64994058  0.18898605  0.57669220     0.65500
H1101       H  0.63432948  0.14084108  0.55754309     0.18400
N1102       N  0.60309577  0.07944672  0.60578001     0.76000
H1103       H  0.61622756  0.12874324  0.62474169     0.09900
C1104       C  0.60801349  0.19664117  0.62535073     0.03600
C1105       C  0.61103592  0.22175285  0.63691079    -0.05100
C1106       C  0.63912485  0.23622830  0.63925457    -0.23500
C1107       C  0.66486872  0.22433614  0.63013000     0.12900
C1108       C  0.66179555  0.19917237  0.61848914    -0.12600
N1109       N  0.57861762  0.18356634  0.62293247     0.64600
H1110       H  0.59087657  0.23046468  0.64372071     0.12400
N1111       N  0.69440468  0.23678107  0.63297675     0.61200
H1112       H  0.68175237  0.19012596  0.61161950     0.08600
O1113       O  0.57560809  0.07799484  0.61055375    -0.40300
O1114       O  0.62161103  0.06034061  0.61216192    -0.39400
O1115       O  0.67781277  0.18982446  0.57275192    -0.39400
O1116       O  0.63241561  0.20866950  0.56995081    -0.37100
O1117       O  0.71101809  0.22600110  0.64554922    -0.38000
O1118       O  0.70620899  0.25291256  0.62052633    -0.34200
O1119       O  0.56761309  0.16737288  0.63562722    -0.35600
O1120       O  0.56121181  0.19414668  0.61070277    -0.39900
C1121       C  0.73540595  0.04817342  0.45595162    -0.13600
C1122       C  0.73548786  0.06543011  0.47221926     0.16800
C1123       C  0.76172232  0.08184154  0.47692525     0.03100
C1124       C  0.78752940  0.07994096  0.46576926    -0.12100
C1125       C  0.78805470  0.06206464  0.44965813    -0.03200
C1126       C  0.76116513  0.04657363  0.44455771     0.02300
C1127       C  0.70916111  0.06348938  0.48491246     0.09200
N1128       N  0.76302854  0.09975176  0.49333437     0.65500
H1129       H  0.80759530  0.09230863  0.47008794     0.18400
N1130       N  0.75927834  0.02949611  0.42784290     0.76000
H1131       H  0.71519112  0.03554980  0.45216012     0.09900
C1132       C  0.68725850  0.08658920  0.48617446     0.03600
C1133       C  0.66212593  0.08286484  0.49779306    -0.05100
C1134       C  0.65822441  0.05651287  0.50852472    -0.23500
C1135       C  0.68066235  0.03366654  0.50744131     0.12900
C1136       C  0.70560617  0.03729269  0.49561087    -0.12600
N1137       N  0.68982105  0.11374311  0.47556092     0.64600
H1138       H  0.64550207  0.10097462  0.49837634     0.12400
N1139       N  0.67850396  0.00649631  0.51802497     0.61200
H1140       H  0.72243093  0.01937997  0.49473986     0.08600
O1141       O  0.74844742  0.04192650  0.41360910    -0.40300
O1142       O  0.76072502  0.00098204  0.42855767    -0.39400
O1143       O  0.77501435  0.08864158  0.50762558    -0.39400
O1144       O  0.76069734  0.12814150  0.49199807    -0.37100
O1145       O  0.66813414  0.98286810  0.51052000    -0.38000
O1146       O  0.69374218  0.00418292  0.53270587    -0.34200
O1147       O  0.67554639  0.11576734  0.46051165    -0.35600
O1148       O  0.69870326  0.13766931  0.48341094    -0.39900
C1149       C  0.16041430  0.96916798  0.25907545    -0.13600
C1150       C  0.13935403  0.96491818  0.24489851     0.16800
C1151       C  0.11729505  0.98727077  0.24154625     0.03100
C1152       C  0.11696793  0.01368999  0.25223275    -0.12100
C1153       C  0.13828768  0.01833853  0.26641797    -0.03200
C1154       C  0.16007308  0.99538734  0.26988461     0.02300
C1155       C  0.14091041  0.93680389  0.23393043     0.09200
N1156       N  0.09552168  0.98380049  0.22709352     0.65500
H1157       H  0.09995588  0.03077539  0.24924178     0.18400
N1158       N  0.18197632  0.99802803  0.28433005     0.76000
H1159       H  0.17727045  0.95179755  0.26184419     0.09900
C1160       C  0.16472657  0.93201110  0.22137982     0.03600
C1161       C  0.16652716  0.90481552  0.21170058    -0.05100
C1162       C  0.14530702  0.88147710  0.21445740    -0.23500
C1163       C  0.12225589  0.88573691  0.22787052     0.12900
C1164       C  0.12002217  0.91351227  0.23721545    -0.12600
N1165       N  0.18735671  0.95458774  0.21827476     0.64600
H1166       H  0.18484572  0.90220147  0.20180260     0.12400
N1167       N  0.10175790  0.86199235  0.23275647     0.61200
H1168       H  0.10231631  0.91665672  0.24748134     0.08600
O1169       O  0.20895883  0.00494000  0.28032704    -0.40300
O1170       O  0.17634417  0.98643046  0.29987762    -0.39400
O1171       O  0.06870793  0.97629090  0.23111231    -0.39400
O1172       O  0.10092908  0.99517515  0.21145728    -0.37100
O1173       O  0.10813063  0.84515920  0.24629237    -0.38000
O1174       O  0.07474573  0.86302751  0.22703468    -0.34200
O1175       O  0.21280622  0.95194822  0.22608770    -0.35600
O1176       O  0.18488707  0.97185611  0.20448479    -0.39900
C1177       C  0.99448322  0.02779829  0.37946982    -0.13600
C1178       C  0.01153921  0.05460924  0.37841539     0.16800
C1179       C  0.00094662  0.08050891  0.38785842     0.03100
C1180       C  0.97292503  0.07966465  0.39698060    -0.12100
C1181       C  0.95477472  0.05351479  0.39687558    -0.03200
C1182       C  0.96643325  0.02696470  0.38859322     0.02300
C1183       C  0.03577751  0.05659577  0.36418954     0.09200
N1184       N  0.01715599  0.10849764  0.38733442     0.65500
H1185       H  0.96468601  0.10024057  0.40350285     0.18400
N1186       N  0.95042250  0.99888316  0.38949004     0.76000
H1187       H  0.00242988  0.00760007  0.37239373     0.09900
C1188       C  0.06653933  0.06302799  0.36808111     0.03600
C1189       C  0.08717847  0.06672029  0.35351062    -0.05100
C1190       C  0.07782329  0.06460811  0.33502796    -0.23500
C1191       C  0.04737557  0.05665280  0.33123442     0.12900
C1192       C  0.02692503  0.05265842  0.34575339    -0.12600
N1193       N  0.07742213  0.06596173  0.38656566     0.64600
H1194       H  0.11050227  0.07269194  0.35673435     0.12400
N1195       N  0.03656859  0.05284100  0.31277137     0.61200
H1196       H  0.00343830  0.04732210  0.34252270     0.08600
O1197       O  0.95684530  0.98038301  0.40217488    -0.40300
O1198       O  0.93634711  0.98956975  0.37541767    -0.39400
O1199       O  0.01104576  0.12735186  0.37479187    -0.39400
O1200       O  0.02992052  0.11773314  0.40188438    -0.37100
O1201       O  0.03417904  0.02640076  0.30630749    -0.38000
O1202       O  0.02167656  0.07400517  0.30536911    -0.34200
O1203       O  0.08857253  0.04294709  0.39433372    -0.35600
O1204       O  0.08524947  0.09184289  0.39222197    -0.39900
C1205       C  0.22730160  0.38346980  0.45952414    -0.13600
C1206       C  0.23151765  0.35806974  0.47082583     0.16800
C1207       C  0.20871571  0.33581098  0.47170816     0.03100
C1208       C  0.18200844  0.33968817  0.46162955    -0.12100
C1209       C  0.17724267  0.36553961  0.45065420    -0.03200
C1210       C  0.20052430  0.38746662  0.44948848     0.02300
C1211       C  0.25829001  0.35750182  0.48302187     0.09200
N1212       N  0.21146063  0.30996503  0.48345232     0.65500
H1213       H  0.16463363  0.32232754  0.46268808     0.18400
N1214       N  0.19705712  0.41446659  0.43885282     0.76000
H1215       H  0.24471918  0.40087046  0.45891307     0.09900
C1216       C  0.28200950  0.33651253  0.48077842     0.03600
C1217       C  0.30782189  0.33877643  0.49184602    -0.05100
C1218       C  0.31095814  0.36196289  0.50504542    -0.23500
C1219       C  0.28696291  0.38293281  0.50727871     0.12900
C1220       C  0.26095253  0.38032039  0.49637119    -0.12600
N1221       N  0.28122676  0.31387807  0.46668416     0.64600
H1222       H  0.32589387  0.32245305  0.48969323     0.12400
N1223       N  0.28874890  0.40750954  0.52007052     0.61200
H1224       H  0.24283026  0.39677129  0.49804543     0.08600
O1225       O  0.20945513  0.41612375  0.42318405    -0.40300
O1226       O  0.18859088  0.43847203  0.44678370    -0.39400
O1227       O  0.20067724  0.31129809  0.49956891    -0.39400
O1228       O  0.21570277  0.28432202  0.47620547    -0.37100
O1229       O  0.29737116  0.43312446  0.51440205    -0.38000
O1230       O  0.27455859  0.40573357  0.53516101    -0.34200
O1231       O  0.29262303  0.31993331  0.45113758    -0.35600
O1232       O  0.27841740  0.28649277  0.47134396    -0.39900
C1233       C  0.13799862  0.28600912  0.35487763    -0.13600
C1234       C  0.13261288  0.25621925  0.36064742     0.16800
C1235       C  0.12622166  0.25040672  0.37929519     0.03100
C1236       C  0.12344966  0.27442514  0.39165584    -0.12100
C1237       C  0.12685088  0.30466524  0.38586222    -0.03200
C1238       C  0.13548107  0.31027056  0.36733683     0.02300
C1239       C  0.13424346  0.23110362  0.34728978     0.09200
N1240       N  0.12175858  0.22019871  0.38582159     0.65500
H1241       H  0.11759281  0.26919006  0.40584996     0.18400
N1242       N  0.14136004  0.34022073  0.36082987     0.76000
H1243       H  0.14388388  0.29045488  0.34058539     0.09900
C1244       C  0.10833342  0.22117884  0.33768313     0.03600
C1245       C  0.10993580  0.19533613  0.32656981    -0.05100
C1246       C  0.13705971  0.17893326  0.32488021    -0.23500
C1247       C  0.16347406  0.19000997  0.33379997     0.12900
C1248       C  0.16171114  0.21579930  0.34498150    -0.12600
N1249       N  0.08003194  0.23661783  0.33947860     0.64600
H1250       H  0.08945529  0.18750724  0.31971999     0.12400
N1251       N  0.19234088  0.17579852  0.33147047     0.61200
H1252       H  0.18187766  0.22370940  0.35215290     0.08600
O1253       O  0.12202339  0.35317987  0.35071026    -0.40300
O1254       O  0.16816006  0.35024414  0.36128324    -0.39400
O1255       O  0.14311480  0.20693705  0.39413093    -0.39400
O1256       O  0.09514739  0.20992706  0.38719944    -0.37100
O1257       O  0.21018152  0.18572203  0.31926149    -0.38000
O1258       O  0.20280043  0.15961740  0.34433721    -0.34200
O1259       O  0.07163549  0.25439635  0.32684038    -0.35600
O1260       O  0.06076225  0.22707497  0.35096525    -0.39900
C1261       C  0.82036008  0.45510686  0.25167615    -0.13600
C1262       C  0.84769052  0.46320936  0.24315354     0.16800
C1263       C  0.87281490  0.44358786  0.24467583     0.03100
C1264       C  0.86971215  0.41583037  0.25381543    -0.12100
C1265       C  0.84205818  0.40718608  0.26188741    -0.03200
C1266       C  0.81725798  0.42754188  0.26098913     0.02300
C1267       C  0.84930152  0.49231773  0.23295749     0.09200
N1268       N  0.90154548  0.45123477  0.23684664     0.65500
H1269       H  0.88932157  0.40102478  0.25471099     0.18400
N1270       N  0.78854129  0.42056490  0.26907488     0.76000
H1271       H  0.80112845  0.47045454  0.25115876     0.09900
C1272       C  0.82906592  0.49869607  0.21839169     0.03600
C1273       C  0.83008433  0.52676683  0.20958815    -0.05100
C1274       C  0.85078463  0.54933850  0.21497898    -0.23500
C1275       C  0.87067654  0.54314035  0.22986307     0.12900
C1276       C  0.86982397  0.51477187  0.23859336    -0.12600
N1277       N  0.80747329  0.47679435  0.21216475     0.64600
H1278       H  0.81445861  0.53067807  0.19825418     0.12400
N1279       N  0.89117675  0.56550477  0.23673488     0.61200
H1280       H  0.88480785  0.51054721  0.25020612     0.08600
O1281       O  0.76756557  0.41062039  0.25888118    -0.40300
O1282       O  0.78185013  0.43195543  0.28453257    -0.39400
O1283       O  0.92231603  0.46093085  0.24728846    -0.39400
O1284       O  0.90845521  0.44089554  0.22116012    -0.37100
O1285       O  0.88323659  0.58170436  0.25025540    -0.38000
O1286       O  0.91890426  0.56384002  0.23254317    -0.34200
O1287       O  0.78005988  0.47958234  0.21688872    -0.35600
O1288       O  0.81394168  0.46037149  0.19846007    -0.39900
C1289       C  0.97882628  0.39270877  0.37342485    -0.13600
C1290       C  0.96124354  0.36628595  0.37376384     0.16800
C1291       C  0.97023079  0.34194707  0.38510649     0.03100
C1292       C  0.99689740  0.34431968  0.39545023    -0.12100
C1293       C  0.01562197  0.37000873  0.39412103    -0.03200
C1294       C  0.00615453  0.39453034  0.38302498     0.02300
C1295       C  0.93792917  0.36299261  0.35930581     0.09200
N1296       N  0.95433544  0.31373588  0.38506329     0.65500
H1297       H  0.00381842  0.32508900  0.40376290     0.18400
N1298       N  0.02451153  0.42086981  0.38054448     0.76000
H1299       H  0.97231738  0.41136559  0.36451094     0.09900
C1300       C  0.90678523  0.35930817  0.36308120     0.03600
C1301       C  0.88623711  0.35674703  0.34842404    -0.05100
C1302       C  0.89619114  0.35828396  0.33004674    -0.23500
C1303       C  0.92717458  0.36381631  0.32639696     0.12900
C1304       C  0.94763890  0.36551917  0.34096139    -0.12600
N1305       N  0.89547697  0.35903290  0.38154935     0.64600
H1306       H  0.86246369  0.35267056  0.35146773     0.12400
N1307       N  0.93820920  0.36855839  0.30805518     0.61200
H1308       H  0.97149758  0.36915732  0.33790190     0.08600
O1309       O  0.01696041  0.44521395  0.38841481    -0.40300
O1310       O  0.04271367  0.42183244  0.36710647    -0.39400
O1311       O  0.96330981  0.29296810  0.37440691    -0.39400
O1312       O  0.93870954  0.30668808  0.39900892    -0.37100
O1313       O  0.94067016  0.39531534  0.30212366    -0.38000
O1314       O  0.95274620  0.34766417  0.30011386    -0.34200
O1315       O  0.88803446  0.38383410  0.38892154    -0.35600
O1316       O  0.88462515  0.33476799  0.38794640    -0.39900
C1317       C  0.81278825  0.21272775  0.34264185    -0.13600
C1318       C  0.84042063  0.19794480  0.34565114     0.16800
C1319       C  0.86617271  0.20693344  0.33548417     0.03100
C1320       C  0.86424233  0.23135670  0.32327082    -0.12100
C1321       C  0.83701004  0.24727135  0.32087312    -0.03200
C1322       C  0.81076032  0.23715248  0.33036577     0.02300
C1323       C  0.84192395  0.17346087  0.35956811     0.09200
N1324       N  0.89435028  0.19120711  0.33709888     0.65500
H1325       H  0.88457209  0.23833994  0.31592768     0.18400
N1326       N  0.78180419  0.25095628  0.32755311     0.76000
H1327       H  0.79266001  0.20549745  0.35011161     0.09900
C1328       C  0.85707468  0.17771851  0.37646493     0.03600
C1329       C  0.85913205  0.15385204  0.38901119    -0.05100
C1330       C  0.84599822  0.12541950  0.38534345    -0.23500
C1331       C  0.82890560  0.12189094  0.36892005     0.12900
C1332       C  0.82723489  0.14582706  0.35617484    -0.12600
N1333       N  0.86979234  0.20638625  0.38139989     0.64600
H1334       H  0.87166264  0.15772170  0.40168707     0.12400
N1335       N  0.81251479  0.09469376  0.36510778     0.61200
H1336       H  0.81451027  0.14277501  0.34348122     0.08600
O1337       O  0.77202514  0.26961326  0.33933635    -0.40300
O1338       O  0.76333896  0.23881963  0.31647257    -0.39400
O1339       O  0.89992546  0.16989151  0.32600105    -0.39400
O1340       O  0.91616701  0.20396390  0.34526628    -0.37100
O1341       O  0.78471714  0.09338056  0.36920010    -0.38000
O1342       O  0.82316056  0.07606264  0.35359678    -0.34200
O1343       O  0.85345660  0.22520053  0.38994984    -0.35600
O1344       O  0.89824824  0.20913777  0.38216225    -0.39900
C1345       C  0.22752058  0.08706929  0.96620381    -0.13600
C1346       C  0.24853211  0.06469670  0.96123594     0.16800
C1347       C  0.24023041  0.04287565  0.94796177     0.03100
C1348       C  0.21121780  0.04355482  0.94017095    -0.12100
C1349       C  0.18980356  0.06563386  0.94531579    -0.03200
C1350       C  0.19844175  0.08782268  0.95842306     0.02300
C1351       C  0.27726319  0.06248809  0.97179064     0.09200
N1352       N  0.26103297  0.02000179  0.94210060     0.65500
H1353       H  0.20546089  0.02636865  0.93002344     0.18400
N1354       N  0.17814418  0.11123302  0.96410907     0.76000
H1355       H  0.23341833  0.10364231  0.97670498     0.09900
C1356       C  0.29834604  0.08645745  0.97233622     0.03600
C1357       C  0.32288501  0.08525358  0.98456740    -0.05100
C1358       C  0.32683059  0.06076006  0.99675890    -0.23500
C1359       C  0.30579495  0.03647626  0.99592759     0.12900
C1360       C  0.28157436  0.03753010  0.98341454    -0.12600
N1361       N  0.29495091  0.11244167  0.96077303     0.64600
H1362       H  0.33856198  0.10422424  0.98478031     0.12400
N1363       N  0.30772802  0.01110967  0.00809604     0.61200
H1364       H  0.26505534  0.01924653  0.98343637     0.08600
O1365       O  0.16309452  0.10789940  0.97878744    -0.40300
O1366       O  0.18094987  0.13736855  0.95728196    -0.39400
O1367       O  0.25773296  0.99329041  0.94795004    -0.39400
O1368       O  0.27671525  0.02449120  0.92778680    -0.37100
O1369       O  0.29210453  0.01112011  0.02269708    -0.38000
O1370       O  0.31786701  0.98632349  0.00200443    -0.34200
O1371       O  0.28455676  0.13659825  0.96760774    -0.35600
O1372       O  0.30936802  0.11360447  0.94574213    -0.39900
C1373       C  0.66332172  0.95252018  0.25415350    -0.13600
C1374       C  0.63747401  0.95707452  0.24328865     0.16800
C1375       C  0.61442824  0.93504548  0.24307606     0.03100
C1376       C  0.61743743  0.90906951  0.25387737    -0.12100
C1377       C  0.64320038  0.90438256  0.26492458    -0.03200
C1378       C  0.66646356  0.92648715  0.26494485     0.02300
C1379       C  0.63603903  0.98436363  0.23168054     0.09200
N1380       N  0.58837821  0.93806280  0.23149359     0.65500
H1381       H  0.59932878  0.89241419  0.25356054     0.18400
N1382       N  0.69378818  0.92260261  0.27529230     0.76000
H1383       H  0.68137309  0.96926869  0.25411710     0.09900
C1384       C  0.61729457  0.00898490  0.23628079     0.03600
C1385       C  0.61833895  0.03535010  0.22571271    -0.05100
C1386       C  0.63824662  0.03808638  0.21068657    -0.23500
C1387       C  0.65735903  0.01325167  0.20620389     0.12900
C1388       C  0.65586623  0.98671704  0.21667810    -0.12600
N1389       N  0.59840945  0.00836544  0.25228352     0.64600
H1390       H  0.60376119  0.05409689  0.22963648     0.12400
N1391       N  0.67867031  0.01446926  0.19133553     0.61200
H1392       H  0.67076110  0.96791184  0.21328417     0.08600
O1393       O  0.69718057  0.93708587  0.29017549    -0.40300
O1394       O  0.71679533  0.91156798  0.26740421    -0.39400
O1395       O  0.58835130  0.92511924  0.21595736    -0.39400
O1396       O  0.56336779  0.94534458  0.23869367    -0.37100
O1397       O  0.70593458  0.02114921  0.19476559    -0.38000
O1398       O  0.67234794  0.00146546  0.17629762    -0.34200
O1399       O  0.60852922  0.01922159  0.26717935    -0.35600
O1400       O  0.57011552  0.00571006  0.25025847    -0.39900
C1401       C  0.70336358  0.20394094  0.23709097    -0.13600
C1402       C  0.72754776  0.21572974  0.22677387     0.16800
C1403       C  0.73473040  0.20256173  0.20958400     0.03100
C1404       C  0.71758031  0.17841872  0.20296152    -0.12100
C1405       C  0.69264095  0.16727423  0.21287128    -0.03200
C1406       C  0.68567425  0.18011300  0.23024713     0.02300
C1407       C  0.74733859  0.23903689  0.23509132     0.09200
N1408       N  0.75861605  0.21421675  0.19829040     0.65500
H1409       H  0.72298093  0.16941748  0.18939588     0.18400
N1410       N  0.66137439  0.16884439  0.24133725     0.76000
H1411       H  0.69849237  0.21290522  0.25073448     0.09900
C1412       C  0.73594922  0.26651194  0.24227602     0.03600
C1413       C  0.75541602  0.28633124  0.25153437    -0.05100
C1414       C  0.78614066  0.27929468  0.25386892    -0.23500
C1415       C  0.79761315  0.25197092  0.24637298     0.12900
C1416       C  0.77812822  0.23225492  0.23719841    -0.12600
N1417       N  0.70471630  0.27455408  0.24051733     0.64600
H1418       H  0.74624195  0.30717366  0.25724691     0.12400
N1419       N  0.82831492  0.24257245  0.24916654     0.61200
H1420       H  0.78696113  0.21064483  0.23242825     0.08600
O1421       O  0.63693716  0.18365558  0.24215727    -0.40300
O1422       O  0.66714013  0.14969746  0.25378113    -0.39400
O1423       O  0.78269110  0.19904879  0.19646951    -0.39400
O1424       O  0.75262022  0.23465801  0.18668664    -0.37100
O1425       O  0.83469161  0.22650951  0.26304364    -0.38000
O1426       O  0.84658148  0.24338227  0.23576038    -0.34200
O1427       O  0.68777795  0.27277420  0.25452271    -0.35600
O1428       O  0.69672469  0.29118495  0.22722137    -0.39900
C1429       C  0.52789640  0.06691333  0.13086432    -0.13600
C1430       C  0.53779900  0.07089547  0.11263975     0.16800
C1431       C  0.56822569  0.07879574  0.10925268     0.03100
C1432       C  0.58795553  0.08325673  0.12404414    -0.12100
C1433       C  0.57779855  0.08081194  0.14233020    -0.03200
C1434       C  0.54749545  0.07198995  0.14573121     0.02300
C1435       C  0.51521971  0.07010874  0.09763862     0.09200
N1436       N  0.57920454  0.08338433  0.09091227     0.65500
H1437       H  0.61107838  0.09037870  0.12113821     0.18400
N1438       N  0.53616595  0.06829712  0.16407770     0.76000
H1439       H  0.50434882  0.06112537  0.13360379     0.09900
C1440       C  0.49804821  0.04395341  0.09398654     0.03600
C1441       C  0.47461113  0.04507469  0.08110809    -0.05100
C1442       C  0.46756370  0.07197767  0.07168883    -0.23500
C1443       C  0.48514966  0.09818166  0.07519787     0.12900
C1444       C  0.50867466  0.09695686  0.08813565    -0.12600
N1445       N  0.50416675  0.01600052  0.10317143     0.64600
H1446       H  0.46183404  0.02448407  0.07850443     0.12400
N1447       N  0.47883540  0.12646245  0.06642539     0.61200
H1448       H  0.52129120  0.11746714  0.09125133     0.08600
O1449       O  0.52038753  0.08911737  0.17116802    -0.40300
O1450       O  0.53494257  0.04204141  0.17090598    -0.39400
O1451       O  0.58274138  0.11007112  0.08506382    -0.39400
O1452       O  0.59256375  0.06192305  0.08278304    -0.37100
O1453       O  0.46226278  0.14551632  0.07460607    -0.38000
O1454       O  0.49562761  0.13521584  0.05336579    -0.34200
O1455       O  0.48610613  0.00685250  0.11548225    -0.35600
O1456       O  0.52212548  0.99735570  0.09577304    -0.39900
C1457       C  0.36581294  0.48059143  0.23475594    -0.13600
C1458       C  0.34356196  0.45924710  0.23955204     0.16800
C1459       C  0.32413830  0.46565658  0.25449601     0.03100
C1460       C  0.32659613  0.49325463  0.26385344    -0.12100
C1461       C  0.34861007  0.51497119  0.25909197    -0.03200
C1462       C  0.36872179  0.50812129  0.24437364     0.02300
C1463       C  0.34216613  0.43000075  0.22933482     0.09200
N1464       N  0.30304804  0.44373392  0.26122853     0.65500
H1465       H  0.31123510  0.49731133  0.27530204     0.18400
N1466       N  0.39264272  0.52822763  0.23919260     0.76000
H1467       H  0.38132562  0.47568763  0.22349143     0.09900
C1468       C  0.31726179  0.42213257  0.21808494     0.03600
C1469       C  0.31760989  0.39497420  0.20809621    -0.05100
C1470       C  0.34247607  0.37506549  0.20878272    -0.23500
C1471       C  0.36747324  0.38300139  0.22013484     0.12900
C1472       C  0.36701090  0.41020583  0.23021501    -0.12600
N1473       N  0.29205337  0.44208638  0.21576849     0.64600
H1474       H  0.29817066  0.38970330  0.19949815     0.12400
N1475       N  0.39395352  0.36444790  0.22121996     0.61200
H1476       H  0.38644004  0.41611029  0.23867928     0.08600
O1477       O  0.38933658  0.54467335  0.22509250    -0.40300
O1478       O  0.41905838  0.52331489  0.24520565    -0.39400
O1479       O  0.31157030  0.42582878  0.27376991    -0.39400
O1480       O  0.27504557  0.44863550  0.25925178    -0.37100
O1481       O  0.41627757  0.37044110  0.21094577    -0.38000
O1482       O  0.39808530  0.34840209  0.23541148    -0.34200
O1483       O  0.29295674  0.46140735  0.20295309    -0.35600
O1484       O  0.26659102  0.43436151  0.22217570    -0.39900
C1485       C  0.23870281  0.16805700  0.25039534    -0.13600
C1486       C  0.22373663  0.19362079  0.24340811     0.16800
C1487       C  0.19200574  0.19560549  0.24481509     0.03100
C1488       C  0.17585247  0.17241432  0.25337328    -0.12100
C1489       C  0.19069525  0.14701958  0.26085020    -0.03200
C1490       C  0.22251528  0.14480237  0.25911299     0.02300
C1491       C  0.24115300  0.21637125  0.23296338     0.09200
N1492       N  0.17598497  0.22162574  0.23828783     0.65500
H1493       H  0.15147227  0.17503737  0.25479061     0.18400
N1494       N  0.23863023  0.11886212  0.26559791     0.76000
H1495       H  0.26310073  0.16589932  0.24877052     0.09900
C1496       C  0.26487571  0.23310326  0.24111489     0.03600
C1497       C  0.28299190  0.25180832  0.23014525    -0.05100
C1498       C  0.27765978  0.25430153  0.21115735    -0.23500
C1499       C  0.25351466  0.23800202  0.20305908     0.12900
C1500       C  0.23550981  0.21928982  0.21403128    -0.12600
N1501       N  0.27083502  0.23135939  0.26046257     0.64600
H1502       H  0.30152626  0.26427635  0.23647524     0.12400
N1503       N  0.24876882  0.23790222  0.18352960     0.61200
H1504       H  0.21786635  0.20578323  0.20754614     0.08600
O1505       O  0.25343122  0.12061804  0.28047161    -0.40300
O1506       O  0.24403101  0.09741830  0.25455324    -0.39400
O1507       O  0.16172175  0.22015823  0.22320618    -0.39400
O1508       O  0.17032030  0.24296564  0.24935552    -0.37100
O1509       O  0.26231297  0.21845703  0.17377401    -0.38000
O1510       O  0.22602975  0.25146902  0.17694122    -0.34200
O1511       O  0.29403980  0.21732789  0.26600613    -0.35600
O1512       O  0.25789404  0.24981057  0.27118415    -0.39900
C1513       C  0.35284543  0.17865316  0.12707750    -0.13600
C1514       C  0.32650930  0.17577203  0.11636621     0.16800
C1515       C  0.30139848  0.19438414  0.12025252     0.03100
C1516       C  0.30379124  0.21677202  0.13383163    -0.12100
C1517       C  0.33079565  0.22102390  0.14384628    -0.03200
C1518       C  0.35522159  0.20087272  0.14078993     0.02300
C1519       C  0.32725933  0.15454972  0.10055811     0.09200
N1520       N  0.27322091  0.19074073  0.11077775     0.65500
H1521       H  0.28437090  0.23131729  0.13630998     0.18400
N1522       N  0.38320899  0.20361241  0.15059807     0.76000
H1523       H  0.37223841  0.16420703  0.12427586     0.09900
C1524       C  0.33136362  0.16529644  0.08241795     0.03600
C1525       C  0.34025429  0.14530903  0.06847224    -0.05100
C1526       C  0.34546661  0.11451106  0.07213629    -0.23500
C1527       C  0.33866691  0.10329704  0.09000038     0.12900
C1528       C  0.32990317  0.12344004  0.10400706    -0.12600
N1529       N  0.32941091  0.19683859  0.07821149     0.64600
H1530       H  0.34486317  0.15448391  0.05484514     0.12400
N1531       N  0.34243916  0.07206463  0.09458472     0.61200
H1532       H  0.32681121  0.11496466  0.11796199     0.08600
O1533       O  0.40517025  0.21710784  0.14304000    -0.40300
O1534       O  0.38827598  0.18624905  0.16408439    -0.39400
O1535       O  0.25277848  0.17488184  0.11820346    -0.39400
O1536       O  0.26573083  0.20999242  0.09875268    -0.37100
O1537       O  0.36594396  0.06382070  0.10316498    -0.38000
O1538       O  0.31953544  0.05492246  0.09446188    -0.34200
O1539       O  0.35321909  0.21268673  0.07867530    -0.35600
O1540       O  0.30686663  0.20633824  0.06918275    -0.39900
C1541       C  0.70066486  0.32229170  0.98441057    -0.13600
C1542       C  0.71862802  0.34836428  0.98592179     0.16800
C1543       C  0.70757660  0.37331146  0.99595911     0.03100
C1544       C  0.67913871  0.37182225  0.00436168    -0.12100
C1545       C  0.66094790  0.34573797  0.00309744    -0.03200
C1546       C  0.67200043  0.32072308  0.99281050     0.02300
C1547       C  0.74764927  0.35021866  0.97570170     0.09200
N1548       N  0.72528903  0.40016453  0.99815138     0.65500
H1549       H  0.67145034  0.39139438  0.01210924     0.18400
N1550       N  0.65478466  0.29351389  0.99079026     0.76000
H1551       H  0.70877458  0.30315748  0.97640641     0.09900
C1552       C  0.77258515  0.33162613  0.98004966     0.03600
C1553       C  0.79944708  0.33409528  0.96988012    -0.05100
C1554       C  0.80212752  0.35469733  0.95516008    -0.23500
C1555       C  0.77663670  0.37274837  0.95053785     0.12900
C1556       C  0.74993123  0.37044922  0.96089745    -0.12600
N1557       N  0.77131576  0.31063119  0.99502180     0.64600
H1558       H  0.81848649  0.31984751  0.97374772     0.12400
N1559       N  0.77695913  0.39295234  0.93514230     0.61200
H1560       H  0.73053941  0.38434125  0.95715874     0.08600
O1561       O  0.66094717  0.27109211  0.00091096    -0.40300
O1562       O  0.63978583  0.28936377  0.97616248    -0.39400
O1563       O  0.71851720  0.42343807  0.98893044    -0.39400
O1564       O  0.74187632  0.40289870  0.01225351    -0.37100
O1565       O  0.76634922  0.38405055  0.91988972    -0.38000
O1566       O  0.78000366  0.42098449  0.93798153    -0.34200
O1567       O  0.76797864  0.28281506  0.99157314    -0.35600
O1568       O  0.78133240  0.31855787  0.01061403    -0.39900
C1569       C  0.61364953  0.23322899  0.12950264    -0.13600
C1570       C  0.64116014  0.23766898  0.12014261     0.16800
C1571       C  0.66695332  0.22131864  0.12561050     0.03100
C1572       C  0.66438548  0.19960109  0.13949690    -0.12100
C1573       C  0.63642305  0.19355453  0.14813642    -0.03200
C1574       C  0.61104205  0.21149528  0.14349703     0.02300
C1575       C  0.64156930  0.25869536  0.10433739     0.09200
N1576       N  0.69588823  0.22645829  0.11730030     0.65500
H1577       H  0.68451791  0.18678981  0.14323849     0.18400
N1578       N  0.58220772  0.20704354  0.15205714     0.76000
H1579       H  0.59372755  0.24615101  0.12548561     0.09900
C1580       C  0.63999530  0.24780236  0.08608485     0.03600
C1581       C  0.63263503  0.26762820  0.07177552    -0.05100
C1582       C  0.62650054  0.29831825  0.07522698    -0.23500
C1583       C  0.63100365  0.30971898  0.09330781     0.12900
C1584       C  0.63824228  0.28974536  0.10766954    -0.12600
N1585       N  0.64303100  0.21628628  0.08200549     0.64600
H1586       H  0.63001709  0.25842466  0.05794998     0.12400
N1587       N  0.62628332  0.34090869  0.09767541     0.61200
H1588       H  0.63958047  0.29827913  0.12172318     0.08600
O1589       O  0.56202588  0.19230958  0.14356503    -0.40300
O1590       O  0.57453883  0.22409510  0.16524211    -0.39400
O1591       O  0.71442392  0.24385659  0.12529035    -0.39400
O1592       O  0.70578116  0.20764082  0.10565591    -0.37100
O1593       O  0.60116302  0.34904835  0.10439153    -0.38000
O1594       O  0.64901286  0.35804444  0.09944003    -0.34200
O1595       O  0.61941208  0.20030285  0.08061393    -0.35600
O1596       O  0.66727468  0.20699007  0.07468906    -0.39900
C1597       C  0.40930452  0.33237128  0.10489652    -0.13600
C1598       C  0.43983049  0.33536743  0.10979674     0.16800
C1599       C  0.44821464  0.33592172  0.12850622     0.03100
C1600       C  0.42613220  0.33229868  0.14207039    -0.12100
C1601       C  0.39560701  0.32804111  0.13731019    -0.03200
C1602       C  0.38705205  0.32871868  0.11846716     0.02300
C1603       C  0.46272606  0.33781353  0.09520710     0.09200
N1604       N  0.47915347  0.33939285  0.13394367     0.65500
H1605       H  0.43308913  0.33197183  0.15644512     0.18400
N1606       N  0.35640847  0.32372972  0.11276974     0.76000
H1607       H  0.40284256  0.33213853  0.09043329     0.09900
C1608       C  0.47655798  0.31184166  0.08778945     0.03600
C1609       C  0.49883635  0.31494982  0.07427196    -0.05100
C1610       C  0.50765285  0.34366440  0.06798006    -0.23500
C1611       C  0.49271904  0.36964508  0.07487726     0.12900
C1612       C  0.47047333  0.36646381  0.08849568    -0.12600
N1613       N  0.46850770  0.28221689  0.09401498     0.64600
H1614       H  0.51001168  0.29472979  0.06910836     0.12400
N1615       N  0.49894357  0.39916315  0.06775129     0.61200
H1616       H  0.45914807  0.38645170  0.09387137     0.08600
O1617       O  0.34878131  0.29792930  0.10686857    -0.40300
O1618       O  0.33972463  0.34622672  0.10928051    -0.39400
O1619       O  0.48798257  0.36464417  0.14008276    -0.39400
O1620       O  0.49488653  0.31609079  0.13706985    -0.37100
O1621       O  0.48309146  0.40910032  0.05456830    -0.38000
O1622       O  0.51402010  0.41757784  0.07741707    -0.34200
O1623       O  0.45147436  0.26599038  0.08409828    -0.35600
O1624       O  0.48392777  0.26992880  0.10662917    -0.39900
C1625       C  0.71997277  0.84733636  0.98678635    -0.13600
C1626       C  0.74575533  0.85884102  0.97788986     0.16800
C1627       C  0.74345739  0.86829584  0.95936231     0.03100
C1628       C  0.71561297  0.86683466  0.95027429    -0.12100
C1629       C  0.68960160  0.85562108  0.95909714    -0.03200
C1630       C  0.69205484  0.84536869  0.97757236     0.02300
C1631       C  0.77528112  0.85887585  0.98763627     0.09200
N1632       N  0.76913908  0.87968263  0.94954642     0.65500
H1633       H  0.71448060  0.87452343  0.93604963     0.18400
N1634       N  0.66663201  0.83314889  0.98727509     0.76000
H1635       H  0.72166565  0.83924541  0.00091032     0.09900
C1636       C  0.78000213  0.87567840  0.00393337     0.03600
C1637       C  0.80836219  0.87511335  0.01253438    -0.05100
C1638       C  0.83231467  0.85742552  0.00557749    -0.23500
C1639       C  0.82707508  0.83966190  0.98961888     0.12900
C1640       C  0.79885991  0.84083507  0.98077872    -0.12600
N1641       N  0.75630770  0.89336518  0.01199749     0.64600
H1642       H  0.81140589  0.88843099  0.02503977     0.12400
N1643       N  0.84983674  0.82014353  0.98220873     0.61200
H1644       H  0.79512793  0.82697814  0.96855808     0.08600
O1645       O  0.66345450  0.80477743  0.98809222    -0.40300
O1646       O  0.65269774  0.84960742  0.99872043    -0.39400
O1647       O  0.78297495  0.86235695  0.93853977    -0.39400
O1648       O  0.77241572  0.90794275  0.94793854    -0.37100
O1649       O  0.84934845  0.79240745  0.98639169    -0.38000
O1650       O  0.86441668  0.82848459  0.96810929    -0.34200
O1651       O  0.74239862  0.88310344  0.02588263    -0.35600
O1652       O  0.75517613  0.92138221  0.00866262    -0.39900
C1653       C  0.53631139  0.93900740  0.98796041    -0.13600
C1654       C  0.52800705  0.96509181  0.97815754     0.16800
C1655       C  0.54363175  0.97252666  0.96183134     0.03100
C1656       C  0.56541384  0.95270109  0.95481976    -0.12100
C1657       C  0.57212762  0.92534342  0.96381270    -0.03200
C1658       C  0.55838705  0.91924420  0.98104779     0.02300
C1659       C  0.50349863  0.98454772  0.98543613     0.09200
N1660       N  0.53637787  0.99919434  0.95160141     0.65500
H1661       H  0.57569719  0.95799674  0.94158295     0.18400
N1662       N  0.56675898  0.89339756  0.99176894     0.76000
H1663       H  0.52539169  0.93386064  0.00103599     0.09900
C1664       C  0.47372824  0.97344082  0.98762464     0.03600
C1665       C  0.45171361  0.99146848  0.99609499    -0.05100
C1666       C  0.45864433  0.02068817  0.00237154    -0.23500
C1667       C  0.48838730  0.03204628  0.99982617     0.12900
C1668       C  0.51041023  0.01391219  0.99136867    -0.12600
N1669       N  0.46544043  0.94400777  0.98116351     0.64600
H1670       H  0.42894002  0.98241820  0.99788009     0.12400
N1671       N  0.49732369  0.06084184  0.00700984     0.61200
H1672       H  0.53349753  0.02241021  0.99009714     0.08600
O1673       O  0.54927521  0.87078953  0.99233424    -0.40300
O1674       O  0.58724855  0.89607697  0.00383210    -0.39400
O1675       O  0.55377979  0.02182537  0.95261370    -0.39400
O1676       O  0.51773240  0.99742672  0.93842636    -0.37100
O1677       O  0.50739249  0.06242301  0.02329719    -0.38000
O1678       O  0.50272326  0.08222579  0.99593614    -0.34200
O1679       O  0.46124359  0.92299449  0.99268576    -0.35600
O1680       O  0.45531199  0.94110486  0.96496316    -0.39900
C1681       C  0.33024976  0.96762526  0.76552529    -0.13600
C1682       C  0.34424204  0.96669031  0.74814223     0.16800
C1683       C  0.35825484  0.93965252  0.74236895     0.03100
C1684       C  0.35784593  0.91424315  0.75382520    -0.12100
C1685       C  0.34363108  0.91476847  0.77119984    -0.03200
C1686       C  0.32978544  0.94211100  0.77708746     0.02300
C1687       C  0.34504809  0.99443910  0.73659023     0.09200
N1688       N  0.37214129  0.93719137  0.72461877     0.65500
H1689       H  0.36846672  0.89363676  0.74878617     0.18400
N1690       N  0.31584874  0.94483894  0.79481800     0.76000
H1691       H  0.31993952  0.98857423  0.77030215     0.09900
C1692       C  0.31817367  0.00841844  0.73042302     0.03600
C1693       C  0.31967803  0.03515835  0.72015379    -0.05100
C1694       C  0.34759859  0.04872735  0.71583565    -0.23500
C1695       C  0.37460238  0.03466915  0.72198557     0.12900
C1696       C  0.37304980  0.00777904  0.73226902    -0.12600
N1697       N  0.28914426  0.99536461  0.73407050     0.64600
H1698       H  0.29862649  0.04537202  0.71546357     0.12400
N1699       N  0.40374948  0.04646529  0.71725759     0.61200
H1700       H  0.39393267  0.99729868  0.73701943     0.08600
O1701       O  0.28728362  0.94444812  0.79590591    -0.40300
O1702       O  0.33095981  0.95601172  0.80796456    -0.39400
O1703       O  0.40070502  0.93693520  0.72351085    -0.39400
O1704       O  0.35670142  0.92708151  0.71130161    -0.37100
O1705       O  0.41755817  0.06301003  0.72871594    -0.38000
O1706       O  0.41850539  0.03420533  0.70433326    -0.34200
O1707       O  0.27224750  0.00733770  0.74609065    -0.35600
O1708       O  0.27771132  0.97743679  0.72241605    -0.39900
C1709       C  0.46258544  0.85398143  0.84770278    -0.13600
C1710       C  0.45343057  0.86476474  0.86495311     0.16800
C1711       C  0.42329536  0.87410669  0.86761923     0.03100
C1712       C  0.40248624  0.87140824  0.85315329    -0.12100
C1713       C  0.41115080  0.85925548  0.83597533    -0.03200
C1714       C  0.44193155  0.85112457  0.83322243     0.02300
C1715       C  0.47637839  0.86646312  0.87961735     0.09200
N1716       N  0.41316559  0.88516817  0.88509025     0.65500
H1717       H  0.37910469  0.87789584  0.85568510     0.18400
N1718       N  0.45264449  0.83910488  0.81610258     0.76000
H1719       H  0.48603546  0.84726965  0.84554322     0.09900
C1720       C  0.48641686  0.84003534  0.88856157     0.03600
C1721       C  0.51230274  0.84102926  0.89959571    -0.05100
C1722       C  0.52905241  0.86785130  0.90153148    -0.23500
C1723       C  0.51840955  0.89461360  0.89297559     0.12900
C1724       C  0.49202766  0.89369299  0.88223260    -0.12600
N1725       N  0.47157923  0.81164865  0.88571932     0.64600
H1726       H  0.52016236  0.82019857  0.90596419     0.12400
N1727       N  0.53411637  0.92274964  0.89485836     0.61200
H1728       H  0.48456205  0.91402774  0.87512707     0.08600
O1729       O  0.45576242  0.81082880  0.81442846    -0.40300
O1730       O  0.46617444  0.85642548  0.80496195    -0.39400
O1731       O  0.40893637  0.91322289  0.88716445    -0.39400
O1732       O  0.40122553  0.86694028  0.89636375    -0.37100
O1733       O  0.55216141  0.93097966  0.88230004    -0.38000
O1734       O  0.52427420  0.94219465  0.90613693    -0.34200
O1735       O  0.48278302  0.79294763  0.87444121    -0.35600
O1736       O  0.45252847  0.80253808  0.89746783    -0.39900
C1737       C  0.24691776  0.56302515  0.95250672    -0.13600
C1738       C  0.24828135  0.56028378  0.97177085     0.16800
C1739       C  0.27665533  0.55583301  0.98033104     0.03100
C1740       C  0.30313655  0.55561855  0.96971144    -0.12100
C1741       C  0.30189152  0.55830361  0.95047110    -0.03200
C1742       C  0.27335373  0.56141342  0.94176027     0.02300
C1743       C  0.21978723  0.55993385  0.98260058     0.09200
N1744       N  0.27892183  0.55080860  0.99974954     0.65500
H1745       H  0.32487004  0.55250322  0.97654305     0.18400
N1746       N  0.27081763  0.56333542  0.92212365     0.76000
H1747       H  0.22507799  0.56573247  0.94574209     0.09900
C1748       C  0.20293840  0.58651562  0.98588639     0.03600
C1749       C  0.17627531  0.58513920  0.99640578    -0.05100
C1750       C  0.16598678  0.55759148  0.00385853    -0.23500
C1751       C  0.18222527  0.53081963  0.99977626     0.12900
C1752       C  0.20894503  0.53226635  0.98933816    -0.12600
N1753       N  0.21325102  0.61522419  0.97930418     0.64600
H1754       H  0.16414237  0.60599497  0.99930607     0.12400
N1755       N  0.17129133  0.50184126  0.00543390     0.61200
H1756       H  0.22127373  0.51154670  0.98635757     0.08600
O1757       O  0.26741273  0.58892743  0.91466654    -0.40300
O1758       O  0.26441700  0.53979367  0.91303195    -0.39400
O1759       O  0.28192359  0.52406871  0.00561278    -0.39400
O1760       O  0.28579697  0.57264134  0.01018230    -0.37100
O1761       O  0.15529938  0.48655155  0.99437965    -0.38000
O1762       O  0.18361546  0.48875793  0.01897493    -0.34200
O1763       O  0.20071045  0.62688630  0.96535323    -0.35600
O1764       O  0.22929083  0.63163777  0.98970943    -0.39900
C1765       C  0.48464130  0.39918673  0.97808898    -0.13600
C1766       C  0.48873646  0.43068703  0.97768563     0.16800
C1767       C  0.51438771  0.44319444  0.98657771     0.03100
C1768       C  0.53466166  0.42436657  0.99589920    -0.12100
C1769       C  0.53023800  0.39293159  0.99678387    -0.03200
C1770       C  0.50509372  0.38023876  0.98737283     0.02300
C1771       C  0.46508655  0.45024342  0.96914939     0.09200
N1772       N  0.52027138  0.47502412  0.98642966     0.65500
H1773       H  0.55387314  0.43476005  0.00284808     0.18400
N1774       N  0.49897397  0.34847844  0.98778137     0.76000
H1775       H  0.46466184  0.38919338  0.97178178     0.09900
C1776       C  0.45462365  0.44563121  0.95092084     0.03600
C1777       C  0.43319794  0.46541736  0.94330128    -0.05100
C1778       C  0.42200914  0.49016736  0.95338606    -0.23500
C1779       C  0.43098959  0.49358685  0.97200051     0.12900
C1780       C  0.45208636  0.47353668  0.97969369    -0.12600
N1781       N  0.46666553  0.42206325  0.93955828     0.64600
H1782       H  0.42669514  0.46238463  0.92897346     0.12400
N1783       N  0.41861655  0.51689400  0.98342370     0.61200
H1784       H  0.45843498  0.47630408  0.99405625     0.08600
O1785       O  0.50527100  0.33265775  0.97378214    -0.40300
O1786       O  0.48053383  0.33825651  0.99955819    -0.39400
O1787       O  0.51544884  0.49016754  0.00092311    -0.39400
O1788       O  0.53805303  0.48558189  0.97439894    -0.37100
O1789       O  0.39665505  0.51059162  0.99391597    -0.38000
O1790       O  0.43437014  0.54011598  0.98677740    -0.34200
O1791       O  0.45097035  0.39859647  0.93676911    -0.35600
O1792       O  0.48827353  0.42803907  0.92873548    -0.39900
C1793       C  0.33837123  0.67627438  0.87991503    -0.13600
C1794       C  0.34267108  0.67105351  0.86099003     0.16800
C1795       C  0.35159500  0.64194215  0.85504756     0.03100
C1796       C  0.35635212  0.61894844  0.86799997    -0.12100
C1797       C  0.35328022  0.62448071  0.88697272    -0.03200
C1798       C  0.34382972  0.65346014  0.89292343     0.02300
C1799       C  0.34163797  0.69727990  0.84820704     0.09200
N1800       N  0.35667757  0.63547557  0.83597405     0.65500
H1801       H  0.36387694  0.59690231  0.86317504     0.18400
N1802       N  0.33980086  0.66022377  0.91206230     0.76000
H1803       H  0.33205311  0.69870387  0.88472371     0.09900
C1804       C  0.31547096  0.71540167  0.84634777     0.03600
C1805       C  0.31686541  0.74253373  0.83636319    -0.05100
C1806       C  0.34391142  0.75201286  0.82789325    -0.23500
C1807       C  0.36993082  0.73347074  0.82945691     0.12900
C1808       C  0.36855531  0.70651038  0.83959487    -0.12600
N1809       N  0.28718984  0.70628553  0.85421363     0.64600
H1810       H  0.29647759  0.75620138  0.83511397     0.12400
N1811       N  0.39843895  0.74254210  0.82190304     0.61200
H1812       H  0.38912229  0.69328193  0.84139854     0.08600
O1813       O  0.31338636  0.66002270  0.91876782    -0.40300
O1814       O  0.36075575  0.67356065  0.92072053    -0.39400
O1815       O  0.38358041  0.63378913  0.83010896    -0.39400
O1816       O  0.33568050  0.62338235  0.82670795    -0.37100
O1817       O  0.41735837  0.75589606  0.83214413    -0.38000
O1818       O  0.40738041  0.73078305  0.80698496    -0.34200
O1819       O  0.27779499  0.71915763  0.86868241    -0.35600
O1820       O  0.26875819  0.69136107  0.84446401    -0.39900
C1821       C  0.61144854  0.49353151  0.73436254    -0.13600
C1822       C  0.63411563  0.47165188  0.73680833     0.16800
C1823       C  0.65770159  0.47733648  0.74947340     0.03100
C1824       C  0.65788425  0.50408869  0.75968725    -0.12100
C1825       C  0.63511658  0.52604334  0.75756432    -0.03200
C1826       C  0.61183841  0.52072712  0.74440589     0.02300
C1827       C  0.63451325  0.44434288  0.72491727     0.09200
N1828       N  0.68157830  0.45598651  0.75234224     0.65500
H1829       H  0.67623377  0.50749182  0.76948863     0.18400
N1830       N  0.58893620  0.54276093  0.74062055     0.76000
H1831       H  0.59372096  0.48984023  0.72416731     0.09900
C1832       C  0.61082444  0.42290350  0.72501566     0.03600
C1833       C  0.61257714  0.39739911  0.71356165    -0.05100
C1834       C  0.63759299  0.39264263  0.70180406    -0.23500
C1835       C  0.66094466  0.41464090  0.70153296     0.12900
C1836       C  0.65905371  0.44011392  0.71293854    -0.12600
N1837       N  0.58521307  0.42625457  0.73694402     0.64600
H1838       H  0.59416474  0.38108005  0.71403837     0.12400
N1839       N  0.68700030  0.41151574  0.68999630     0.61200
H1840       H  0.67703772  0.45691394  0.71237817     0.08600
O1841       O  0.56277439  0.53921724  0.74734587    -0.40300
O1842       O  0.59235511  0.56036685  0.72705528    -0.39400
O1843       O  0.70689068  0.46041801  0.74466802    -0.39400
O1844       O  0.68016418  0.43842321  0.76604849    -0.37100
O1845       O  0.68775246  0.42534481  0.67476194    -0.38000
O1846       O  0.71143789  0.40196411  0.69694527    -0.34200
O1847       O  0.56026720  0.43497319  0.73025509    -0.35600
O1848       O  0.58545563  0.41348908  0.75252686    -0.39900
C1849       C  0.56895119  0.54924099  0.86279326    -0.13600
C1850       C  0.53976265  0.54168415  0.85658796     0.16800
C1851       C  0.53476843  0.53771095  0.83752001     0.03100
C1852       C  0.55798996  0.54418827  0.82501235    -0.12100
C1853       C  0.58631432  0.55468886  0.83107035    -0.03200
C1854       C  0.59235949  0.55552028  0.85022860     0.02300
C1855       C  0.51395626  0.54437447  0.86956162     0.09200
N1856       N  0.50545821  0.53022818  0.83046402     0.65500
H1857       H  0.55311370  0.54298561  0.81032569     0.18400
N1858       N  0.62096177  0.56557528  0.85719100     0.76000
H1859       H  0.57300445  0.55236496  0.87746349     0.09900
C1860       C  0.49783373  0.51909398  0.87616005     0.03600
C1861       C  0.47236259  0.52342649  0.88740651    -0.05100
C1862       C  0.46261679  0.55262569  0.89238234    -0.23500
C1863       C  0.47930317  0.57789770  0.88616299     0.12900
C1864       C  0.50472913  0.57352940  0.87486100    -0.12600
N1865       N  0.50720669  0.48895069  0.87184784     0.64600
H1866       H  0.45997719  0.50371159  0.89226038     0.12400
N1867       N  0.46952543  0.60809980  0.88995272     0.61200
H1868       H  0.51690270  0.59316470  0.86970046     0.08600
O1869       O  0.63948784  0.54627096  0.86333453    -0.40300
O1870       O  0.62430145  0.59307075  0.86149194    -0.39400
O1871       O  0.48837708  0.55127204  0.82492845    -0.39400
O1872       O  0.50062255  0.50358769  0.82488707    -0.37100
O1873       O  0.48326651  0.62336513  0.90208178    -0.38000
O1874       O  0.45330918  0.62166175  0.87821697    -0.34200
O1875       O  0.52347705  0.47478562  0.88328068    -0.35600
O1876       O  0.49283113  0.47420292  0.85975824    -0.39900
C1877       C  0.66140249  0.70111829  0.85472397    -0.13600
C1878       C  0.63947931  0.72359335  0.85186100     0.16800
C1879       C  0.62026916  0.72151216  0.83636377     0.03100
C1880       C  0.62200389  0.69623128  0.82481775    -0.12100
C1881       C  0.64296724  0.67284321  0.82811868    -0.03200
C1882       C  0.66350052  0.67598351  0.84303106     0.02300
C1883       C  0.63680090  0.74847850  0.86547874     0.09200
N1884       N  0.59841764  0.74445338  0.83231104     0.65500
H1885       H  0.60647151  0.69491935  0.81321441     0.18400
N1886       N  0.68651050  0.65402169  0.84667331     0.76000
H1887       H  0.67704458  0.70305703  0.86624916     0.09900
C1888       C  0.63100187  0.74218691  0.88421062     0.03600
C1889       C  0.62928210  0.76578701  0.89695403    -0.05100
C1890       C  0.63304694  0.79612296  0.89157917    -0.23500
C1891       C  0.63976646  0.80237440  0.87280159     0.12900
C1892       C  0.64145603  0.77855007  0.85999744    -0.12600
N1893       N  0.62575438  0.71194289  0.89045649     0.64600
H1894       H  0.62420552  0.76013540  0.91122110     0.12400
N1895       N  0.64460399  0.83255679  0.86635652     0.61200
H1896       H  0.64672921  0.78357615  0.84566384     0.08600
O1897       O  0.68291727  0.63566157  0.85983677    -0.40300
O1898       O  0.71281704  0.65826504  0.84031156    -0.39400
O1899       O  0.60393032  0.76309432  0.81953988    -0.39400
O1900       O  0.57138755  0.74090154  0.83760567    -0.37100
O1901       O  0.67132980  0.84273691  0.86568712    -0.38000
O1902       O  0.62417834  0.84531832  0.85695433    -0.34200
O1903       O  0.64625275  0.69842813  0.89939500    -0.35600
O1904       O  0.59895156  0.70196310  0.89102432    -0.39900
C1905       C  0.77614927  0.59912294  0.49758201    -0.13600
C1906       C  0.75819011  0.57299090  0.49714044     0.16800
C1907       C  0.76907044  0.54625348  0.50541217     0.03100
C1908       C  0.79747187  0.54605417  0.51394852    -0.12100
C1909       C  0.81580720  0.57205438  0.51431129    -0.03200
C1910       C  0.80479223  0.59893292  0.50597800     0.02300
C1911       C  0.73028903  0.57285806  0.48582614     0.09200
N1912       N  0.75152027  0.51906053  0.50527890     0.65500
H1913       H  0.80528812  0.52513450  0.52023807     0.18400
N1914       N  0.82203823  0.62632016  0.50604745     0.76000
H1915       H  0.76819803  0.61967194  0.49089764     0.09900
C1916       C  0.70446122  0.59008176  0.49044155     0.03600
C1917       C  0.67908661  0.58978723  0.47877797    -0.05100
C1918       C  0.67915459  0.57308114  0.46225091    -0.23500
C1919       C  0.70575500  0.55690468  0.45735451     0.12900
C1920       C  0.73064410  0.55661703  0.46926888    -0.12600
N1921       N  0.70352253  0.60778472  0.50693820     0.64600
H1922       H  0.65916146  0.60267136  0.48276849     0.12400
N1923       N  0.70868706  0.54194646  0.43994323     0.61200
H1924       H  0.75093306  0.54428961  0.46525358     0.08600
O1925       O  0.81614468  0.64637556  0.51792600    -0.40300
O1926       O  0.83699926  0.63347816  0.49185174    -0.39400
O1927       O  0.75794619  0.49848185  0.49383465    -0.39400
O1928       O  0.73559925  0.51261867  0.51920980    -0.37100
O1929       O  0.71890996  0.55655616  0.42632348    -0.38000
O1930       O  0.70852996  0.51338646  0.43938145    -0.34200
O1931       O  0.70793538  0.63597193  0.50592959    -0.35600
O1932       O  0.69088613  0.59700437  0.52111566    -0.39900
C1933       C  0.96177387  0.47090913  0.49248918    -0.13600
C1934       C  0.99044877  0.48354428  0.48890972     0.16800
C1935       C  0.99596189  0.51380188  0.49432223     0.03100
C1936       C  0.97344974  0.53015258  0.50351494    -0.12100
C1937       C  0.94535223  0.51705922  0.50787328    -0.03200
C1938       C  0.93948791  0.48707138  0.50215789     0.02300
C1939       C  0.01361551  0.46540444  0.47879603     0.09200
N1940       N  0.02461712  0.52806239  0.49122490     0.65500
H1941       H  0.97861683  0.55309793  0.50799152     0.18400
N1942       N  0.91083373  0.47300320  0.50547815     0.76000
H1943       H  0.95638787  0.44829980  0.48754085     0.09900
C1944       C  0.02099991  0.43549805  0.48407764     0.03600
C1945       C  0.04128989  0.41857369  0.47346085    -0.05100
C1946       C  0.05462294  0.43041730  0.45737461    -0.23500
C1947       C  0.04796716  0.46065330  0.45240324     0.12900
C1948       C  0.02744562  0.47757113  0.46298498    -0.12600
N1949       N  0.00791635  0.42165975  0.50004752     0.64600
H1950       H  0.04603305  0.39545498  0.47773998     0.12400
N1951       N  0.06068361  0.47423794  0.43628202     0.61200
H1952       H  0.02140698  0.50017311  0.45831108     0.08600
O1953       O  0.90857695  0.45373093  0.51826315    -0.40300
O1954       O  0.89091108  0.47362768  0.49297214    -0.39400
O1955       O  0.02662717  0.54843160  0.47906507    -0.39400
O1956       O  0.04475068  0.52644380  0.50356626    -0.37100
O1957       O  0.04568502  0.47406433  0.42144667    -0.38000
O1958       O  0.08250627  0.49251184  0.43802441    -0.34200
O1959       O  0.98747558  0.40193386  0.49792540    -0.35600
O1960       O  0.02229798  0.42250005  0.51509943    -0.39900
C1961       C  0.11846333  0.45196695  0.74138621    -0.13600
C1962       C  0.14162835  0.47279334  0.74508024     0.16800
C1963       C  0.16401214  0.46558137  0.75814897     0.03100
C1964       C  0.16306939  0.43775273  0.76722707    -0.12100
C1965       C  0.14002017  0.41650439  0.76365135    -0.03200
C1966       C  0.11731198  0.42400435  0.75054220     0.02300
C1967       C  0.14187192  0.50205430  0.73527992     0.09200
N1968       N  0.18805321  0.48616475  0.76228796     0.65500
H1969       H  0.18085037  0.43281185  0.77714813     0.18400
N1970       N  0.09267126  0.40403550  0.74653125     0.76000
H1971       H  0.10099316  0.45758079  0.73137631     0.09900
C1972       C  0.15441934  0.50454035  0.71752740     0.03600
C1973       C  0.15355047  0.53221385  0.70829698    -0.05100
C1974       C  0.13997683  0.55785614  0.71628418    -0.23500
C1975       C  0.12707098  0.55526034  0.73411607     0.12900
C1976       C  0.12833979  0.52744150  0.74347018    -0.12600
N1977       N  0.16787177  0.47906445  0.70855966     0.64600
H1978       H  0.16326077  0.53341726  0.69455310     0.12400
N1979       N  0.11324670  0.58051609  0.74312372     0.61200
H1980       H  0.11848679  0.52555513  0.75715114     0.08600
O1981       O  0.09355127  0.38831196  0.73198633    -0.40300
O1982       O  0.06747503  0.40834689  0.75437221    -0.39400
O1983       O  0.18651059  0.50193269  0.77679219    -0.39400
O1984       O  0.21342917  0.48259539  0.75453350    -0.37100
O1985       O  0.08472017  0.58284808  0.74295817    -0.38000
O1986       O  0.12819289  0.59492316  0.75511778    -0.34200
O1987       O  0.15298250  0.46518445  0.69631324    -0.35600
O1988       O  0.19626081  0.47567644  0.70929538    -0.39900
C1989       C  0.26109554  0.76777963  0.74069109    -0.13600
C1990       C  0.23819510  0.75346816  0.75086184     0.16800
C1991       C  0.23385733  0.76145218  0.76954178     0.03100
C1992       C  0.25315079  0.78269457  0.77777905    -0.12100
C1993       C  0.27732654  0.79558656  0.76790965    -0.03200
C1994       C  0.28072189  0.78854179  0.74900630     0.02300
C1995       C  0.22063693  0.72922181  0.74169546     0.09200
N1996       N  0.21197815  0.74634640  0.78080868     0.65500
H1997       H  0.25051225  0.78740542  0.79242743     0.18400
N1998       N  0.30402291  0.80204929  0.73805713     0.76000
H1999       H  0.26430459  0.76209753  0.72621322     0.09900
C2000       C  0.18969179  0.73270435  0.73753103     0.03600
C2001       C  0.17487545  0.71070789  0.72706645    -0.05100
C2002       C  0.19036920  0.68540632  0.71999030    -0.23500
C2003       C  0.22144719  0.68180341  0.72426158     0.12900
C2004       C  0.23611724  0.70353210  0.73520471    -0.12600
N2005       N  0.17355985  0.75964338  0.74229284     0.64600
H2006       H  0.15120313  0.71449963  0.72362388     0.12400
N2007       N  0.23856604  0.65663019  0.71754716     0.61200
H2008       H  0.26010462  0.70081974  0.73821244     0.08600
O2009       O  0.29743163  0.82423078  0.72784064    -0.40300
O2010       O  0.32798909  0.78731506  0.73489453    -0.39400
O2011       O  0.22026248  0.72363297  0.79009364    -0.39400
O2012       O  0.18852658  0.76056494  0.78575319    -0.37100
O2013       O  0.25562339  0.66023740  0.70372793    -0.38000
O2014       O  0.24284171  0.63418407  0.72800229    -0.34200
O2015       O  0.17392509  0.78160087  0.73115219    -0.35600
O2016       O  0.15243687  0.75803983  0.75400258    -0.39900
C2017       C  0.07211992  0.58519151  0.61240466    -0.13600
C2018       C  0.04188264  0.58078661  0.61770144     0.16800
C2019       C  0.03434153  0.58042847  0.63654836     0.03100
C2020       C  0.05665805  0.58616157  0.64972876    -0.12100
C2021       C  0.08666727  0.59261133  0.64454608    -0.03200
C2022       C  0.09465136  0.59090853  0.62564139     0.02300
C2023       C  0.01826445  0.57725582  0.60345570     0.09200
N2024       N  0.00377820  0.57602196  0.64249879     0.65500
H2025       H  0.05004469  0.58696359  0.66416529     0.18400
N2026       N  0.12489049  0.59665964  0.61949120     0.76000
H2027       H  0.07809320  0.58501847  0.59785824     0.09900
C2028       C  0.00599568  0.60260675  0.59437721     0.03600
C2029       C  0.98285462  0.59869069  0.58144150    -0.05100
C2030       C  0.97150283  0.56977880  0.57724911    -0.23500
C2031       C  0.98472709  0.54423263  0.58587221     0.12900
C2032       C  0.00778525  0.54825439  0.59897733    -0.12600
N2033       N  0.01621236  0.63256055  0.59849940     0.64600
H2034       H  0.97306464  0.61867632  0.57503655     0.12400
N2035       N  0.97609479  0.51411586  0.58095242     0.61200
H2036       H  0.01770444  0.52857749  0.60566298     0.08600
O2037       O  0.13141057  0.62245051  0.61312939    -0.40300
O2038       O  0.14195006  0.57451862  0.61581503    -0.39400
O2039       O  0.99602092  0.55055958  0.64882921    -0.39400
O2040       O  0.98747391  0.59885858  0.64584061    -0.37100
O2041       O  0.99109942  0.50038221  0.56869679    -0.38000
O2042       O  0.95985462  0.49898212  0.59193085    -0.34200
O2043       O  0.03386353  0.64571120  0.58737582    -0.35600
O2044       O  0.00197965  0.64810101  0.61027913    -0.39900
C2045       C  0.86274209  0.92512310  0.73835170    -0.13600
C2046       C  0.83922396  0.94555314  0.73462303     0.16800
C2047       C  0.81730776  0.93803603  0.72126696     0.03100
C2048       C  0.81937310  0.91055539  0.71182240    -0.12100
C2049       C  0.84296761  0.88989457  0.71532209    -0.03200
C2050       C  0.86477763  0.89739194  0.72897666     0.02300
C2051       C  0.83901117  0.97521344  0.74408487     0.09200
N2052       N  0.79341655  0.95847470  0.71655512     0.65500
H2053       H  0.80222855  0.90557128  0.70149702     0.18400
N2054       N  0.88926715  0.87753568  0.73345569     0.76000
H2055       H  0.87979546  0.93085452  0.74860173     0.09900
C2056       C  0.81759044  0.98216563  0.75783370     0.03600
C2057       C  0.81826348  0.01043033  0.76643570    -0.05100
C2058       C  0.84043244  0.03214071  0.76202791    -0.23500
C2059       C  0.86260524  0.02468562  0.74857357     0.12900
C2060       C  0.86143067  0.99650432  0.73966682    -0.12600
N2061       N  0.79607547  0.96024913  0.76405526     0.64600
H2062       H  0.80134016  0.01509774  0.77694072     0.12400
N2063       N  0.88704513  0.04470055  0.74418503     0.61200
H2064       H  0.87844160  0.99100922  0.72934784     0.08600
O2065       O  0.88721029  0.86110173  0.74765037    -0.40300
O2066       O  0.91510235  0.88251095  0.72659564    -0.39400
O2067       O  0.79694283  0.97592330  0.70293426    -0.39400
O2068       O  0.76687070  0.95281474  0.72206697    -0.37100
O2069       O  0.91205601  0.04150409  0.75243958    -0.38000
O2070       O  0.88640156  0.05907500  0.72913562    -0.34200
O2071       O  0.80291753  0.94379510  0.77767073    -0.35600
O2072       O  0.76845759  0.96380891  0.76005390    -0.39900
C2073       C  0.73623612  0.67382110  0.74607924    -0.13600
C2074       C  0.72364665  0.70292400  0.74473195     0.16800
C2075       C  0.69328983  0.70748278  0.75018438     0.03100
C2076       C  0.67657201  0.68332939  0.75729082    -0.12100
C2077       C  0.68960065  0.65454750  0.75951165    -0.03200
C2078       C  0.71973248  0.64979036  0.75365976     0.02300
C2079       C  0.74184722  0.72756705  0.73641893     0.09200
N2080       N  0.67949584  0.73674852  0.74942235     0.65500
H2081       H  0.65356773  0.68762120  0.76198570     0.18400
N2082       N  0.73370862  0.62069615  0.75489046     0.76000
H2083       H  0.75905241  0.66960375  0.74106728     0.09900
C2084       C  0.77106089  0.73488897  0.74299505     0.03600
C2085       C  0.78872891  0.75599014  0.73353805    -0.05100
C2086       C  0.77833679  0.76971864  0.71724206    -0.23500
C2087       C  0.74863210  0.76307770  0.71099259     0.12900
C2088       C  0.73081902  0.74218855  0.72062562    -0.12600
N2089       N  0.78362321  0.72047032  0.75891502     0.64600
H2090       H  0.81137358  0.76070573  0.73869008     0.12400
N2091       N  0.73692172  0.77531204  0.69419089     0.61200
H2092       H  0.70873580  0.73614287  0.71510324     0.08600
O2093       O  0.75212691  0.61555921  0.76785215    -0.40300
O2094       O  0.73402663  0.60382947  0.74082104    -0.39400
O2095       O  0.65982638  0.74206361  0.73718388    -0.39400
O2096       O  0.68091744  0.75375618  0.76340175    -0.37100
O2097       O  0.71852325  0.79715160  0.69491600    -0.38000
O2098       O  0.73804821  0.75946335  0.67972591    -0.34200
O2099       O  0.80318481  0.69991002  0.75672841    -0.35600
O2100       O  0.78192142  0.73370351  0.77432050    -0.39900
C2101       C  0.81554997  0.69719543  0.63207199    -0.13600
C2102       C  0.84293718  0.68145060  0.63032852     0.16800
C2103       C  0.86813228  0.69058857  0.64094157     0.03100
C2104       C  0.86576420  0.71577299  0.65252996    -0.12100
C2105       C  0.83889569  0.73272329  0.65350746    -0.03200
C2106       C  0.81327594  0.72272756  0.64341711     0.02300
C2107       C  0.84610791  0.65970687  0.61497057     0.09200
N2108       N  0.89703187  0.67635371  0.63895864     0.65500
H2109       H  0.88578276  0.72304484  0.66007311     0.18400
N2110       N  0.78465670  0.73770970  0.64461221     0.76000
H2111       H  0.79605876  0.69035624  0.62388150     0.09900
C2112       C  0.85102928  0.62851550  0.61768390     0.03600
C2113       C  0.85657719  0.60981908  0.60243086    -0.05100
C2114       C  0.85708379  0.62167807  0.58443096    -0.23500
C2115       C  0.84956545  0.65247178  0.58173529     0.09700
C2116       C  0.84443273  0.67111669  0.59697212    -0.12600
N2117       N  0.85002240  0.61538488  0.63569219     0.64600
H2118       H  0.86165263  0.58607616  0.60479293     0.12400
N2119       N  0.84656033  0.66516523  0.56368611     0.61200
H2120       H  0.83963653  0.69496771  0.59473530     0.08600
O2121       O  0.76326912  0.72444494  0.65287954    -0.40300
O2122       O  0.77833712  0.75797481  0.63295032    -0.39400
O2123       O  0.91589011  0.68748064  0.62774918    -0.39400
O2124       O  0.90660654  0.65964897  0.65182669    -0.37100
O2125       O  0.82043825  0.66723988  0.55667543    -0.38000
O2126       O  0.86766112  0.68146433  0.55737945    -0.34200
O2127       O  0.82519416  0.60483809  0.64150114    -0.35600
O2128       O  0.87438794  0.60665427  0.64310700    -0.39900
C2129       C  0.18938950  0.83173257  0.48030282    -0.13600
C2130       C  0.21215672  0.85287082  0.48429916     0.16800
C2131       C  0.20639879  0.87580593  0.49732639     0.03100
C2132       C  0.17819282  0.87741504  0.50601785    -0.12100
C2133       C  0.15514235  0.85628905  0.50220159    -0.03200
C2134       C  0.16104998  0.83316136  0.48908675     0.02300
C2135       C  0.24054021  0.85283670  0.47340438     0.09200
N2136       N  0.22932943  0.89719789  0.50227074     0.65500
H2137       H  0.17467423  0.89516297  0.51616364     0.18400
N2138       N  0.13862575  0.81117853  0.48428123     0.76000
H2139       H  0.19342799  0.81434821  0.46998437     0.09900
C2140       C  0.26157355  0.82887469  0.47421243     0.03600
C2141       C  0.28803804  0.83011276  0.46354668    -0.05100
C2142       C  0.29404326  0.85485833  0.45186223    -0.23500
C2143       C  0.27244725  0.87855683  0.45087017     0.12900
C2144       C  0.24613748  0.87726696  0.46159795    -0.12600
N2145       N  0.25685588  0.80356218  0.48614747     0.64600
H2146       H  0.30405633  0.81152250  0.46453317     0.12400
N2147       N  0.27689105  0.90441294  0.43934390     0.61200
H2148       H  0.22977527  0.89558504  0.46065061     0.08600
O2149       O  0.14023202  0.78499799  0.49118494    -0.40300
O2150       O  0.12259913  0.81532023  0.47006705    -0.39400
O2151       O  0.22773920  0.92391337  0.49617537    -0.39400
O2152       O  0.24642661  0.89158869  0.51581652    -0.37100
O2153       O  0.26491109  0.90490587  0.42352075    -0.38000
O2154       O  0.28578899  0.92890383  0.44651479    -0.34200
O2155       O  0.24923087  0.77841619  0.47928087    -0.35600
O2156       O  0.26738072  0.80436232  0.50234281    -0.39900
C2157       C  0.97480835  0.90675627  0.48226706    -0.13600
C2158       C  0.97860549  0.93787449  0.47945009     0.16800
C2159       C  0.00520279  0.95203141  0.48612655     0.03100
C2160       C  0.02672546  0.93518219  0.49592229    -0.12100
C2161       C  0.02267614  0.90410997  0.49914293    -0.03200
C2162       C  0.99648954  0.88977523  0.49186117     0.02300
C2163       C  0.95356001  0.95568935  0.47106213     0.09200
N2164       N  0.01084853  0.98347902  0.48295912     0.65500
H2165       H  0.04673004  0.94671205  0.50120673     0.18400
N2166       N  0.99051964  0.85840492  0.49495638     0.76000
H2167       H  0.95416149  0.89563202  0.47760006     0.09900
C2168       C  0.94098810  0.94845097  0.45366731     0.03600
C2169       C  0.91852885  0.96702776  0.44603469    -0.05100
C2170       C  0.90821680  0.99294743  0.45535394    -0.23500
C2171       C  0.91898228  0.99861994  0.47342206     0.12900
C2172       C  0.94128783  0.97994089  0.48106390    -0.12600
N2173       N  0.95177281  0.92331956  0.44311856     0.64600
H2174       H  0.91058109  0.96212369  0.43214713     0.12400
N2175       N  0.90760290  0.02317182  0.48424685     0.61200
H2176       H  0.94931313  0.98463580  0.49496164     0.08600
O2177       O  0.99694584  0.83949838  0.48248978    -0.40300
O2178       O  0.97247358  0.85084606  0.50765805    -0.39400
O2179       O  0.00697607  0.00211235  0.49596668    -0.39400
O2180       O  0.02669034  0.99119198  0.46923744    -0.37100
O2181       O  0.88622336  0.01823304  0.49543120    -0.38000
O2182       O  0.92375308  0.04652523  0.48632842    -0.34200
O2183       O  0.93532978  0.90003825  0.44167019    -0.35600
O2184       O  0.97296666  0.92738270  0.43168115    -0.39900
C2185       C  0.11852741  0.74818937  0.63026520    -0.13600
C2186       C  0.14429668  0.75048769  0.61899605     0.16800
C2187       C  0.16910989  0.73120116  0.62227804     0.03100
C2188       C  0.16749437  0.70978232  0.63640826    -0.12100
C2189       C  0.14139226  0.70663283  0.64743399    -0.03200
C2190       C  0.11671403  0.72649240  0.64433022     0.02300
C2191       C  0.14363330  0.77232418  0.60351592     0.09200
N2192       N  0.19631438  0.73314967  0.61163398     0.65500
H2193       H  0.18699506  0.69518909  0.63855252     0.18400
N2194       N  0.08919343  0.72431186  0.65465333     0.76000
H2195       H  0.09919828  0.76287289  0.62775390     0.09900
C2196       C  0.14071773  0.76235859  0.58512632     0.03600
C2197       C  0.13348716  0.78307133  0.57130374    -0.05100
C2198       C  0.12765674  0.81360155  0.57536784    -0.23500
C2199       C  0.13292663  0.82410607  0.59356348     0.12900
C2200       C  0.14092169  0.80334940  0.60741143    -0.12600
N2201       N  0.14115556  0.73091364  0.58049415     0.64600
H2202       H  0.12998455  0.77449927  0.55738896     0.12400
N2203       N  0.12788937  0.85497073  0.59863612     0.61200
H2204       H  0.14312106  0.81122482  0.62157761     0.08600
O2205       O  0.06671278  0.71100471  0.64753119    -0.40300
O2206       O  0.08488216  0.74227426  0.66795318    -0.39400
O2207       O  0.21808002  0.74863673  0.61786921    -0.39400
O2208       O  0.20188218  0.71262414  0.59999355    -0.37100
O2209       O  0.10294019  0.86224429  0.60593861    -0.38000
O2210       O  0.15045192  0.87226271  0.60062291    -0.34200
O2211       O  0.11668529  0.71614824  0.58134181    -0.35600
O2212       O  0.16232001  0.72103181  0.57043265    -0.39900
C2213       C  0.95667271  0.84519585  0.63464140    -0.13600
C2214       C  0.94532834  0.85592672  0.61780870     0.16800
C2215       C  0.91381586  0.85998197  0.61573811     0.03100
C2216       C  0.89441089  0.85339309  0.63041731    -0.12100
C2217       C  0.90551254  0.84192090  0.64721587    -0.03200
C2218       C  0.93724591  0.83799278  0.64926326     0.02300
C2219       C  0.96643789  0.85959745  0.60210379     0.09200
N2220       N  0.90101094  0.87006461  0.59868595     0.65500
H2221       H  0.87019410  0.85640937  0.62830849     0.18400
N2222       N  0.95021406  0.82563477  0.66569184     0.76000
H2223       H  0.98084795  0.84102593  0.63619509     0.09900
C2224       C  0.99212970  0.87850559  0.60326476     0.03600
C2225       C  0.01303680  0.87903759  0.58880957    -0.05100
C2226       C  0.00927221  0.86069200  0.57312522    -0.23500
C2227       C  0.98334105  0.84194569  0.57191869     0.12900
C2228       C  0.96233700  0.84159053  0.58636756    -0.12600
N2229       N  0.99760447  0.89697818  0.61912369     0.64600
H2230       H  0.03291374  0.89348305  0.59017892     0.12400
N2231       N  0.97783773  0.82313790  0.55622422     0.61200
H2232       H  0.94309312  0.82621546  0.58553424     0.08600
O2233       O  0.95583055  0.79763212  0.66637356    -0.40300
O2234       O  0.96308055  0.84316153  0.67701514    -0.39400
O2235       O  0.88853011  0.85099235  0.58814901    -0.39400
O2236       O  0.89505169  0.89780187  0.59665236    -0.37100
O2237       O  0.98610384  0.79579051  0.55666623    -0.38000
O2238       O  0.95813403  0.83120401  0.54459280    -0.34200
O2239       O  0.01808266  0.88933301  0.63037416    -0.35600
O2240       O  0.98813064  0.92393311  0.61920443    -0.39900
loop_ 
_geom_bond_atom_site_label_1 
_geom_bond_atom_site_label_2 
_geom_bond_distance 
_geom_bond_site_symmetry_2 
_ccdc_geom_bond_type 
O1           Cu9   2.028       .  S
O1           C11   1.278       .  A
O2           Cu9   2.021       .  S
O2           C12   1.281       .  A
O3           Cu9   1.990       .  S
O3           C13   1.277       .  A
O4           Cu9   2.002       .  S
O4           C14   1.279       .  A
O5          Cu10   2.018       .  S
O5           C14   1.278       .  A
O6          Cu10   2.010       .  S
O6           C13   1.277       .  A
O7          Cu10   1.998       .  S
O7           C12   1.275       .  A
O8          Cu10   1.990       .  S
O8           C11   1.278       .  A
Cu9         Cu10   2.368       .  S
C11        C2198   1.484       .  S
C12        C2161   1.487       .  S
C13        C2226   1.479       .  S
C14        C2133   1.490       .  S
O15         Cu23   2.003       .  S
O15          C25   1.276       .  A
O16         Cu23   2.002       .  S
O16          C26   1.279       .  A
O17         Cu23   2.005       .  S
O17          C27   1.280       .  A
O18         Cu23   2.002       .  S
O18          C28   1.276       .  A
O19         Cu24   1.994       .  S
O19          C28   1.279       .  A
O20         Cu24   2.004       .  S
O20          C27   1.276       .  A
O21         Cu24   2.020       .  S
O21          C26   1.278       .  A
O22         Cu24   2.009       .  S
O22          C25   1.280       .  A
Cu23        Cu24   2.368       .  S
C25        C2105   1.480       .  S
C26        C2049   1.490       .  S
C27        C2217   1.486       .  S
C28        C2086   1.481       .  S
O29         Cu37   1.982       .  S
O29          C39   1.276       .  A
O30         Cu37   1.990       .  S
O30          C40   1.277       .  A
O31         Cu37   2.030       .  S
O31          C41   1.279       .  A
O32         Cu37   2.029       .  S
O32          C42   1.279       .  A
O33         Cu38   1.980       .  S
O33          C42   1.276       .  A
O34         Cu38   1.981       .  S
O34          C41   1.276       .  A
O35         Cu38   2.029       .  S
O35          C40   1.279       .  A
O36         Cu38   2.032       .  S
O36          C39   1.280       .  A
Cu37        Cu38   2.368       .  S
C39        C2189   1.487       .  S
C40        C1974   1.483       .  S
C41        C2021   1.481       .  S
C42        C2002   1.483       .  S
O43         Cu51   2.006       .  S
O43          C53   1.279       .  A
O44         Cu51   2.008       .  S
O44          C54   1.277       .  A
O45         Cu51   1.995       .  S
O45          C55   1.275       .  A
O46         Cu51   1.999       .  S
O46          C56   1.278       .  A
O47         Cu52   2.019       .  S
O47          C56   1.278       .  A
O48         Cu52   2.017       .  S
O48          C55   1.280       .  A
O49         Cu52   2.007       .  S
O49          C54   1.280       .  A
O50         Cu52   2.015       .  S
O50          C53   1.277       .  A
Cu51        Cu52   2.370       .  S
C53        C2030   1.481       .  S
C54        C1909   1.485       .  S
C55        C2114   1.479       .  S
C56        C1937   1.480       .  S
O57         Cu65   2.018       .  S
O57          C67   1.278       .  A
O58         Cu65   2.028       .  S
O58          C68   1.278       .  A
O59         Cu65   2.009       .  S
O59          C69   1.281       .  A
O60         Cu65   2.008       .  S
O60          C70   1.277       .  A
O61         Cu66   2.001       .  S
O61          C70   1.279       .  A
O62         Cu66   2.008       .  S
O62          C69   1.275       .  A
O63         Cu66   1.992       .  S
O63          C68   1.277       .  A
O64         Cu66   1.989       .  S
O64          C67   1.276       .  A
Cu65        Cu66   2.369       .  S
C67        C2077   1.476       .  S
C68        C1853   1.479       .  S
C69        C1825   1.489       .  S
C70        C1881   1.485       .  S
O71         Cu79   2.005       .  S
O71          C81   1.275       .  A
O72         Cu79   1.993       .  S
O72          C82   1.276       .  A
O73         Cu79   2.020       .  S
O73          C83   1.281       .  A
O74         Cu79   2.011       .  S
O74          C84   1.280       .  A
O75         Cu80   2.004       .  S
O75          C84   1.276       .  A
O76         Cu80   2.009       .  S
O76          C83   1.277       .  A
O77         Cu80   2.038       .  S
O77          C82   1.281       .  A
O78         Cu80   2.019       .  S
O78          C81   1.280       .  A
Cu79        Cu80   2.372       .  S
C81        C1741   1.476       .  S
C82        C1862   1.480       .  S
C83        C1778   1.483       .  S
C84        C1797   1.478       .  S
O85         Cu93   2.004       .  S
O85          C95   1.280       .  A
O86         Cu93   2.014       .  S
O86          C96   1.278       .  A
O87         Cu93   2.001       .  S
O87          C97   1.276       .  A
O88         Cu93   1.992       .  S
O88          C98   1.275       .  A
O89         Cu94   2.003       .  S
O89          C98   1.279       .  A
O90         Cu94   2.007       .  S
O90          C97   1.279       .  A
O91         Cu94   2.016       .  S
O91          C96   1.280       .  A
O92         Cu94   2.026       .  S
O92          C95   1.278       .  A
Cu93        Cu94   2.369       .  S
C95        C1685   1.491       .  S
C96        C1806   1.484       .  S
C97        C1993   1.477       .  S
C98        C1713   1.482       .  S
O99        Cu107   1.996       .  S
O99         C109   1.276       .  A
O100       Cu107   2.001       .  S
O100        C110   1.279       .  A
O101       Cu107   2.011       .  S
O101        C111   1.276       .  A
O102       Cu107   2.003       .  S
O102        C112   1.279       .  A
O103       Cu108   2.002       .  S
O103        C112   1.276       .  A
O104       Cu108   2.002       .  S
O104        C111   1.279       .  A
O105       Cu108   2.021       .  S
O105        C110   1.278       .  A
O106       Cu108   2.002       .  S
O106        C109   1.279       .  A
Cu107      Cu108   2.369       .  S
C109       C1657   1.478       .  S
C110       C1890   1.489       .  S
C111       C1629   1.483       .  S
C112       C1722   1.475       .  S
O113       Cu121   2.021       .  S
O113        C123   1.278       .  A
O114       Cu121   2.004       .  S
O114        C124   1.279       .  A
O115       Cu121   2.014       .  S
O115        C125   1.277       .  A
O116       Cu121   2.002       .  S
O116        C126   1.280       .  A
O117       Cu122   2.013       .  S
O117        C126   1.277       .  A
O118       Cu122   1.998       .  S
O118        C125   1.279       .  A
O119       Cu122   1.998       .  S
O119        C124   1.275       .  A
O120       Cu122   2.000       .  S
O120        C123   1.279       .  A
Cu121      Cu122   2.369       .  S
C123       C1545   1.490       .  S
C124       C1610   1.472       .  S
C125       C1769   1.486   1_554  S
C126       C1582   1.483       .  S
O127       Cu135   2.015       .  S
O127        C137   1.281       .  A
O128       Cu135   1.993       .  S
O128        C138   1.278       .  A
O129       Cu135   1.993       .  S
O129        C139   1.275       .  A
O130       Cu135   1.996       .  S
O130        C140   1.275       .  A
O131       Cu136   1.990       .  S
O131        C140   1.278       .  A
O132       Cu136   1.998       .  S
O132        C139   1.277       .  A
O133       Cu136   2.022       .  S
O133        C138   1.279       .  A
O134       Cu136   2.029       .  S
O134        C137   1.279       .  A
Cu135      Cu136   2.372       .  S
C137       C1470   1.495       .  S
C138       C1517   1.484       .  S
C139       C1498   1.466       .  S
C140       C1601   1.471       .  S
O141       Cu149   2.002       .  S
O141        C151   1.275       .  A
O142       Cu149   1.999       .  S
O142        C152   1.275       .  A
O143       Cu149   2.018       .  S
O143        C153   1.283       .  A
O144       Cu149   2.038       .  S
O144        C154   1.281       .  A
O145       Cu150   1.971       .  S
O145        C154   1.274       .  A
O146       Cu150   1.979       .  S
O146        C153   1.271       .  A
O147       Cu150   1.999       .  S
O147        C152   1.279       .  A
O148       Cu150   1.998       .  S
O148        C151   1.279       .  A
Cu149      Cu150   2.371       .  S
C151       C1405   1.475       .  S
C152       C1433   1.473       .  S
C153       C1386   1.482       .  S
C154       C1573   1.481       .  S
O155       Cu163   2.015       .  S
O155        C165   1.281       .  A
O156       Cu163   2.004       .  S
O156        C166   1.276       .  A
O157       Cu163   2.009       .  S
O157        C167   1.277       .  A
O158       Cu163   2.005       .  S
O158        C168   1.280       .  A
O159       Cu164   2.018       .  S
O159        C168   1.277       .  A
O160       Cu164   2.009       .  S
O160        C167   1.279       .  A
O161       Cu164   1.993       .  S
O161        C166   1.278       .  A
O162       Cu164   2.014       .  S
O162        C165   1.277       .  A
Cu163      Cu164   2.368       .  S
C165       C1358   1.493   1_554  S
C166       C1442   1.480       .  S
C167       C1666   1.478       .  S
C168       C1526   1.488       .  S
O169       Cu177   2.010       .  S
O169        C179   1.281       .  A
O170       Cu177   2.020       .  S
O170        C180   1.281       .  A
O171       Cu177   2.003       .  S
O171        C181   1.275       .  A
O172       Cu177   1.996       .  S
O172        C182   1.274       .  A
O173       Cu178   2.023       .  S
O173        C182   1.282       .  A
O174       Cu178   2.019       .  S
O174        C181   1.281       .  A
O175       Cu178   1.967       .  S
O175        C180   1.271       .  A
O176       Cu178   1.970       .  S
O176        C179   1.271       .  A
Cu177      Cu178   2.371       .  S
C179       C1414   1.471       .  S
C180       C1302   1.471       .  S
C181       C1265   1.486       .  S
C182       C1321   1.483       .  S
O183       Cu191   1.980       .  S
O183        C193   1.276       .  A
O184       Cu191   1.978       .  S
O184        C194   1.276       .  A
O185       Cu191   1.984       .  S
O185        C195   1.276       .  A
O186       Cu191   1.987       .  S
O186        C196   1.276       .  A
O187       Cu192   2.004       .  S
O187        C196   1.277       .  A
O188       Cu192   2.017       .  S
O188        C195   1.278       .  A
O189       Cu192   2.036       .  S
O189        C194   1.280       .  A
O190       Cu192   2.032       .  S
O190        C193   1.281       .  A
Cu191      Cu192   2.367       .  S
C193       C1946   1.488       .  S
C194       C1237   1.488       .  S
C195       C1209   1.482       .  S
C196       C1293   1.477       .  S
O197       Cu205   2.030       .  S
O197        C207   1.282       .  A
O198       Cu205   2.022       .  S
O198        C208   1.279       .  A
O199       Cu205   1.996       .  S
O199        C209   1.275       .  A
O200       Cu205   2.001       .  S
O200        C210   1.276       .  A
O201       Cu206   2.013       .  S
O201        C210   1.280       .  A
O202       Cu206   2.020       .  S
O202        C209   1.281       .  A
O203       Cu206   1.980       .  S
O203        C208   1.275       .  A
O204       Cu206   1.991       .  S
O204        C207   1.274       .  A
Cu205      Cu206   2.368       .  S
C207       C1190   1.482       .  S
C208       C1489   1.480       .  S
C209       C1246   1.482       .  S
C210       C1153   1.488       .  S
O211       Cu219   2.034       .  S
O211        C221   1.281       .  A
O212       Cu219   2.039       .  S
O212        C222   1.281       .  A
O213       Cu219   2.038       .  S
O213        C223   1.280       .  A
O214       Cu219   2.021       .  S
O214        C224   1.281       .  A
O215       Cu220   1.993       .  S
O215        C224   1.275       .  A
O216       Cu220   1.990       .  S
O216        C223   1.277       .  A
O217       Cu220   1.995       .  S
O217        C222   1.278       .  A
O218       Cu220   2.005       .  S
O218        C221   1.278       .  A
Cu219      Cu220   2.366       .  S
C221       C1181   1.488       .  S
C222       C1125   1.495       .  S
C223       C1330   1.491       .  S
C224       C2170   1.482   1_545  S
O225       Cu233   1.997       .  S
O225        C235   1.277       .  A
O226       Cu233   1.997       .  S
O226        C236   1.278       .  A
O227       Cu233   1.994       .  S
O227        C237   1.278       .  A
O228       Cu233   1.997       .  S
O228        C238   1.277       .  A
O229       Cu234   2.017       .  S
O229        C238   1.278       .  A
O230       Cu234   2.010       .  S
O230        C237   1.278       .  A
O231       Cu234   2.012       .  S
O231        C236   1.278       .  A
O232       Cu234   2.023       .  S
O232        C235   1.280       .  A
Cu233      Cu234   2.368       .  S
C235       C1834   1.490       .  S
C236       C1106   1.481       .  S
C237       C1050   1.485       .  S
C238       C1069   1.476       .  S
O239       Cu247   2.011       .  S
O239        C249   1.276       .  A
O240       Cu247   1.997       .  S
O240        C250   1.279       .  A
O241       Cu247   1.991       .  S
O241        C251   1.278       .  A
O242       Cu247   2.004       .  S
O242        C252   1.276       .  A
O243       Cu248   2.001       .  S
O243        C252   1.278       .  A
O244       Cu248   2.008       .  S
O244        C251   1.277       .  A
O245       Cu248   2.006       .  S
O245        C250   1.276       .  A
O246       Cu248   1.995       .  S
O246        C249   1.278       .  A
Cu247      Cu248   2.371       .  S
C249        C994   1.472       .  S
C250       C1013   1.482       .  S
C251       C1218   1.483       .  S
C252       C1078   1.473       .  S
O253       Cu261   2.026       .  S
O253        C263   1.279       .  A
O254       Cu261   2.015       .  S
O254        C264   1.282       .  A
O255       Cu261   1.999       .  S
O255        C265   1.275       .  A
O256       Cu261   1.985       .  S
O256        C266   1.274       .  A
O257       Cu262   2.020       .  S
O257        C266   1.281       .  A
O258       Cu262   2.021       .  S
O258        C265   1.282       .  A
O259       Cu262   1.999       .  S
O259        C264   1.274       .  A
O260       Cu262   1.999       .  S
O260        C263   1.278       .  A
Cu261      Cu262   2.368       .  S
C263       C1694   1.484       .  S
C264       C1022   1.486       .  S
C265        C938   1.489       .  S
C266        C966   1.481       .  S
O267       Cu275   2.045       .  S
O267        C277   1.282       .  A
O268       Cu275   2.026       .  S
O268        C278   1.279       .  A
O269       Cu275   2.012       .  S
O269        C279   1.278       .  A
O270       Cu275   2.028       .  S
O270        C280   1.279       .  A
O271       Cu276   1.992       .  S
O271        C280   1.277       .  A
O272       Cu276   1.989       .  S
O272        C279   1.277       .  A
O273       Cu276   1.987       .  S
O273        C278   1.276       .  A
O274       Cu276   1.992       .  S
O274        C277   1.276       .  A
Cu275      Cu276   2.369       .  S
C277       C1134   1.494       .  S
C278        C957   1.477       .  S
C279        C901   1.483   1_545  S
C280       C1097   1.476       .  S
O281       Cu289   1.991       .  S
O281        C291   1.278       .  A
O282       Cu289   2.002       .  S
O282        C292   1.276       .  A
O283       Cu289   2.008       .  S
O283        C293   1.280       .  A
O284       Cu289   2.015       .  S
O284        C294   1.277       .  A
O285       Cu290   2.003       .  S
O285        C294   1.280       .  A
O286       Cu290   2.001       .  S
O286        C293   1.275       .  A
O287       Cu290   2.017       .  S
O287        C292   1.281       .  A
O288       Cu290   2.026       .  S
O288        C291   1.279       .  A
Cu289      Cu290   2.368       .  S
C291        C854   1.489       .  S
C292        C929   1.481       .  S
C293        C873   1.481       .  S
C294       C1965   1.488       .  S
O295       Cu303   2.012       .  S
O295        C305   1.279       .  A
O296       Cu303   2.009       .  S
O296        C306   1.280       .  A
O297       Cu303   1.975       .  S
O297        C307   1.272       .  A
O298       Cu303   1.974       .  S
O298        C308   1.275       .  A
O299       Cu304   2.016       .  S
O299        C308   1.279       .  A
O300       Cu304   2.017       .  S
O300        C307   1.281       .  A
O301       Cu304   2.011       .  S
O301        C306   1.277       .  A
O302       Cu304   2.004       .  S
O302        C305   1.276       .  A
Cu303      Cu304   2.370       .  S
C305        C845   1.478       .  S
C306       C1554   1.489       .  S
C307        C817   1.475       .  S
C308        C789   1.476       .  S
O309       Cu317   1.988       .  S
O309        C319   1.278       .  A
O310       Cu317   1.991       .  S
O310        C320   1.275       .  A
O311       Cu317   1.998       .  S
O311        C321   1.280       .  A
O312       Cu317   2.008       .  S
O312        C322   1.276       .  A
O313       Cu318   2.008       .  S
O313        C322   1.281       .  A
O314       Cu318   1.998       .  S
O314        C321   1.274       .  A
O315       Cu318   2.018       .  S
O315        C320   1.279       .  A
O316       Cu318   2.031       .  S
O316        C319   1.279       .  A
Cu317      Cu318   2.369       .  S
C319        C770   1.490       .  S
C320       C1041   1.471       .  S
C321        C826   1.479       .  S
C322       C2058   1.488       .  S
O323       Cu331   2.019       .  S
O323        C333   1.280       .  A
O324       Cu331   2.016       .  S
O324        C334   1.280       .  A
O325       Cu331   1.999       .  S
O325        C335   1.278       .  A
O326       Cu331   2.005       .  S
O326        C336   1.275       .  A
O327       Cu332   2.022       .  S
O327        C336   1.282       .  A
O328       Cu332   2.018       .  S
O328        C335   1.279       .  A
O329       Cu332   1.997       .  S
O329        C334   1.275       .  A
O330       Cu332   2.002       .  S
O330        C333   1.276       .  A
Cu331      Cu332   2.367       .  S
C333        C742   1.487   1_545  S
C334        C882   1.481       .  S
C335       C1349   1.489       .  S
C336        C761   1.489       .  S
O337       Cu345   1.982       .  S
O337        C347   1.276       .  A
O338       Cu345   2.005       .  S
O338        C348   1.280       .  A
O339       Cu345   2.010       .  S
O339        C349   1.276       .  A
O340       Cu345   2.004       .  S
O340        C350   1.277       .  A
O341       Cu346   1.993       .  S
O341        C350   1.276       .  A
O342       Cu346   1.985       .  S
O342        C349   1.278       .  A
O343       Cu346   2.035       .  S
O343        C348   1.279       .  A
O344       Cu346   2.027       .  S
O344        C347   1.279       .  A
Cu345      Cu346   2.369       .  S
C347        C714   1.481       .  S
C348       C1461   1.497       .  S
C349        C677   1.481       .  S
C350        C658   1.470       .  S
O351       Cu359   2.023       .  S
O351        C361   1.281       .  A
O352       Cu359   2.023       .  S
O352        C362   1.282       .  A
O353       Cu359   1.969       .  S
O353        C363   1.271       .  A
O354       Cu359   1.963       .  S
O354        C364   1.274       .  A
O355       Cu360   2.036       .  S
O355        C364   1.281       .  A
O356       Cu360   2.028       .  S
O356        C363   1.284       .  A
O357       Cu360   1.979       .  S
O357        C362   1.273       .  A
O358       Cu360   1.991       .  S
O358        C361   1.274       .  A
Cu359      Cu360   2.367       .  S
C361       C1918   1.486       .  S
C362        C686   1.482       .  S
C363        C985   1.482       .  S
C364        C630   1.484       .  S
O365       Cu373   2.040       .  S
O365        C375   1.281       .  A
O366       Cu373   2.038       .  S
O366        C376   1.280       .  A
O367       Cu373   1.995       .  S
O367        C377   1.277       .  A
O368       Cu373   2.004       .  S
O368        C378   1.276       .  A
O369       Cu374   2.011       .  S
O369        C378   1.279       .  A
O370       Cu374   2.020       .  S
O370        C377   1.278       .  A
O371       Cu374   1.980       .  S
O371        C376   1.275       .  A
O372       Cu374   1.968       .  S
O372        C375   1.275       .  A
Cu373      Cu374   2.368       .  S
C375        C705   1.485       .  S
C376        C910   1.477       .  S
C377        C593   1.479       .  S
C378       C2142   1.487       .  S
O379       Cu387   2.010       .  S
O379        C389   1.277       .  A
O380       Cu387   1.989       .  S
O380        C390   1.276       .  A
O381       Cu387   2.020       .  S
O381        C391   1.278       .  A
O382       Cu387   2.001       .  S
O382        C392   1.279       .  A
O383       Cu388   1.998       .  S
O383        C392   1.275       .  A
O384       Cu388   1.976       .  S
O384        C391   1.277       .  A
O385       Cu388   1.994       .  S
O385        C390   1.275       .  A
O386       Cu388   2.005       .  S
O386        C389   1.278       .  A
Cu387      Cu388   2.374       .  S
C389        C602   1.474       .  S
C390        C565   1.458       .  S
C391        C621   1.482       .  S
C392       C1377   1.478       .  S
O393       Cu401   2.017       .  S
O393        C403   1.278       .  A
O394       Cu401   2.016       .  S
O394        C404   1.280       .  A
O395       Cu401   1.998       .  S
O395        C405   1.279       .  A
O396       Cu401   2.003       .  S
O396        C406   1.275       .  A
O397       Cu402   2.020       .  S
O397        C406   1.282       .  A
O398       Cu402   2.016       .  S
O398        C405   1.277       .  A
O399       Cu402   1.987       .  S
O399        C404   1.274       .  A
O400       Cu402   1.979       .  S
O400        C403   1.276       .  A
Cu401      Cu402   2.368       .  S
C403        C649   1.482       .  S
C404        C518   1.472       .  S
C405       C1162   1.488       .  S
C406        C546   1.489       .  S
O407       Cu415   2.003       .  S
O407        C417   1.276       .  A
O408       Cu415   1.996       .  S
O408        C418   1.277       .  A
O409       Cu415   2.016       .  S
O409        C419   1.281       .  A
O410       Cu415   2.020       .  S
O410        C420   1.278       .  A
O411       Cu416   1.998       .  S
O411        C420   1.278       .  A
O412       Cu416   2.002       .  S
O412        C419   1.276       .  A
O413       Cu416   2.024       .  S
O413        C418   1.279       .  A
O414       Cu416   2.024       .  S
O414        C417   1.281       .  A
Cu415      Cu416   2.368       .  S
C417        C490   1.486       .  S
C418        C733   1.483       .  S
C419        C509   1.482       .  S
C420       C1638   1.487       .  S
O421       Cu429   2.019       .  S
O421        C431   1.278       .  A
O422       Cu429   2.027       .  S
O422        C432   1.280       .  A
O423       Cu429   2.024       .  S
O423        C433   1.279       .  A
O424       Cu429   2.007       .  S
O424        C434   1.277       .  A
O425       Cu430   1.994       .  S
O425        C434   1.277       .  A
O426       Cu430   1.996       .  S
O426        C433   1.278       .  A
O427       Cu430   2.009       .  S
O427        C432   1.278       .  A
O428       Cu430   2.006       .  S
O428        C431   1.279       .  A
Cu429      Cu430   2.368       .  S
C431        C453   1.487       .  S
C432       C1750   1.486       .  S
C433        C537   1.489       .  S
C434        C798   1.477       .  S
O435       Cu443   2.028       .  S
O435        C445   1.279       .  A
O436       Cu443   2.032       .  S
O436        C446   1.281       .  A
O437       Cu443   1.989       .  S
O437        C447   1.276       .  A
O438       Cu443   1.992       .  S
O438        C448   1.275       .  A
O439       Cu444   2.022       .  S
O439        C448   1.280       .  A
O440       Cu444   2.020       .  S
O440        C447   1.279       .  A
O441       Cu444   1.993       .  S
O441        C446   1.277       .  A
O442       Cu444   1.992       .  S
O442        C445   1.277       .  A
Cu443      Cu444   2.368       .  S
C445       C1274   1.490       .  S
C446        C481   1.491       .  S
C447        C574   1.475       .  S
C448        C462   1.479       .  S
C449        C450   1.398       .  A
C449        C454   1.400   1_655  A
C449        H459   1.087       .  S
C450        C455   1.479       .  S
C450        C451   1.409       .  A
C451        C452   1.399   1_655  A
C451        N456   1.429       .  S
C452        C453   1.406       .  A
C452        H457   1.087       .  S
C453        C454   1.418       .  A
C454        N458   1.429       .  S
C455        C460   1.410       .  A
C455        C464   1.400       .  A
N456        O471   1.262       .  A
N456        O472   1.262       .  A
N458        O469   1.262       .  A
N458        O470   1.262       .  A
C460        C461   1.402       .  A
C460        N465   1.429       .  S
C461        C462   1.405       .  A
C461        H466   1.087       .  S
C462        C463   1.413       .  A
C463        C464   1.396       .  A
C463        N467   1.429       .  S
C464        H468   1.087       .  S
N465        O475   1.262       .  A
N465        O476   1.261       .  A
N467        O473   1.262       .  A
N467        O474   1.262       .  A
C477        C478   1.402       .  A
C477        C482   1.401       .  A
C477        H487   1.086       .  S
C478        C483   1.487       .  S
C478        C479   1.411       .  A
C479        C480   1.399       .  A
C479        N484   1.430       .  S
C480        C481   1.408       .  A
C480        H485   1.086       .  S
C481        C482   1.415       .  A
C482        N486   1.427       .  S
C483        C488   1.413       .  A
C483        C492   1.402       .  A
N484        O499   1.262       .  A
N484        O500   1.262       .  A
N486        O497   1.262       .  A
N486        O498   1.262       .  A
C488        C489   1.400       .  A
C488        N493   1.429       .  S
C489        C490   1.404       .  A
C489        H494   1.086       .  S
C490        C491   1.416       .  A
C491        C492   1.400       .  A
C491        N495   1.429       .  S
C492        H496   1.086       .  S
N493        O503   1.262       .  A
N493        O504   1.262       .  A
N495        O501   1.262       .  A
N495        O502   1.262       .  A
C505        C506   1.399       .  A
C505        C510   1.399       .  A
C505        H515   1.086       .  S
C506        C511   1.475       .  S
C506        C507   1.409       .  A
C507        C508   1.398       .  A
C507        N512   1.429       .  S
C508        C509   1.403   1_455  A
C508        H513   1.086   1_455  S
C509        C510   1.416   1_655  A
C510        N514   1.429   1_455  S
C511        C516   1.409       .  A
C511        C520   1.401       .  A
N512        O527   1.262       .  A
N512        O528   1.262       .  A
N514        O525   1.262   1_655  A
N514        O526   1.262       .  A
C516        C517   1.398       .  A
C516        N521   1.428       .  S
C517        C518   1.403       .  A
C517        H522   1.087       .  S
C518        C519   1.412       .  A
C519        C520   1.397       .  A
C519        N523   1.429       .  S
C520        H524   1.087       .  S
N521        O531   1.262       .  A
N521        O532   1.262       .  A
N523        O529   1.262       .  A
N523        O530   1.262       .  A
C533        C534   1.401       .  A
C533        C538   1.401       .  A
C533        H543   1.086       .  S
C534        C539   1.486       .  S
C534        C535   1.412       .  A
C535        C536   1.399       .  A
C535        N540   1.430       .  S
C536        C537   1.407       .  A
C536        H541   1.086       .  S
C537        C538   1.416       .  A
C538        N542   1.427       .  S
C539        C544   1.412       .  A
C539        C548   1.401       .  A
N540        O555   1.262       .  A
N540        O556   1.262       .  A
N542        O553   1.262       .  A
N542        O554   1.262       .  A
C544        C545   1.397       .  A
C544        N549   1.429       .  S
C545        C546   1.404       .  A
C545        H550   1.085       .  S
C546        C547   1.419       .  A
C547        C548   1.402       .  A
C547        N551   1.428       .  S
C548        H552   1.085       .  S
N549        O559   1.262       .  A
N549        O560   1.262       .  A
N551        O557   1.262       .  A
N551        O558   1.262       .  A
C561        C562   1.398       .  A
C561        C566   1.394       .  A
C561        H571   1.086       .  S
C562        C567   1.463       .  S
C562        C563   1.406       .  A
C563        C564   1.395       .  A
C563        N568   1.428       .  S
C564        C565   1.399       .  A
C564        H569   1.085       .  S
C565        C566   1.410       .  A
C566        N570   1.429       .  S
C567        C572   1.400       .  A
C567        C576   1.400       .  A
N568        O583   1.262       .  A
N568        O584   1.262       .  A
N570        O581   1.262       .  A
N570        O582   1.262       .  A
C572        C573   1.394       .  A
C572        N577   1.429       .  S
C573        C574   1.408       .  A
C573        H578   1.083       .  S
C574        C575   1.412       .  A
C575        C576   1.400       .  A
C575        N579   1.428       .  S
C576        H580   1.082       .  S
N577        O587   1.262       .  A
N577        O588   1.261       .  A
N579        O585   1.262       .  A
N579        O586   1.262       .  A
C589        C590   1.402       .  A
C589        C594   1.400       .  A
C589        H599   1.088       .  S
C590        C595   1.479       .  S
C590        C591   1.408       .  A
C591        C592   1.396       .  A
C591        N596   1.428       .  S
C592        C593   1.404       .  A
C592        H597   1.087       .  S
C593        C594   1.413       .  A
C594        N598   1.429       .  S
C595        C600   1.409       .  A
C595        C604   1.403       .  A
N596        O611   1.262       .  A
N596        O612   1.262       .  A
N598        O609   1.262       .  A
N598        O610   1.262       .  A
C600        C601   1.396       .  A
C600        N605   1.428       .  S
C601        C602   1.401       .  A
C601        H606   1.088       .  S
C602        C603   1.412       .  A
C603        C604   1.402       .  A
C603        N607   1.428       .  S
C604        H608   1.087       .  S
N605        O615   1.262       .  A
N605        O616   1.262       .  A
N607        O613   1.262       .  A
N607        O614   1.262       .  A
C617        C618   1.400       .  A
C617        C622   1.401       .  A
C617        H627   1.087       .  S
C618        C623   1.468       .  S
C618        C619   1.403       .  A
C619        C620   1.390       .  A
C619        N624   1.429       .  S
C620        C621   1.407       .  A
C620        H625   1.086       .  S
C621        C622   1.416       .  A
C622        N626   1.429       .  S
C623        C628   1.404       .  A
C623        C632   1.401       .  A
N624        O639   1.262       .  A
N624        O640   1.261       .  A
N626        O637   1.262       .  A
N626        O638   1.262       .  A
C628        C629   1.388       .  A
C628        N633   1.431       .  S
C629        C630   1.408       .  A
C629        H634   1.085       .  S
C630        C631   1.415       .  A
C631        C632   1.404       .  A
C631        N635   1.427       .  S
C632        H636   1.086       .  S
N633        O643   1.262       .  A
N633        O644   1.262       .  A
N635        O641   1.262       .  A
N635        O642   1.262       .  A
C645        C646   1.402       .  A
C645        C650   1.400       .  A
C645        H655   1.086       .  S
C646        C651   1.476       .  S
C646        C647   1.408       .  A
C647        C648   1.391       .  A
C647        N652   1.430       .  S
C648        C649   1.406       .  A
C648        H653   1.086       .  S
C649        C650   1.414       .  A
C650        N654   1.428       .  S
C651        C656   1.412       .  A
C651        C660   1.398       .  A
N652        O667   1.262       .  A
N652        O668   1.262       .  A
N654        O665   1.262       .  A
N654        O666   1.262       .  A
C656        C657   1.398       .  A
C656        N661   1.428       .  S
C657        C658   1.401       .  A
C657        H662   1.087       .  S
C658        C659   1.413       .  A
C659        C660   1.393       .  A
C659        N663   1.428       .  S
C660        H664   1.087       .  S
N661        O671   1.262       .  A
N661        O672   1.262       .  A
N663        O669   1.261       .  A
N663        O670   1.262       .  A
C673        C674   1.400       .  A
C673        C678   1.403       .  A
C673        H683   1.086       .  S
C674        C679   1.471       .  S
C674        C675   1.405       .  A
C675        C676   1.390       .  A
C675        N680   1.428       .  S
C676        C677   1.403       .  A
C676        H681   1.085       .  S
C677        C678   1.419       .  A
C678        N682   1.429       .  S
C679        C684   1.408       .  A
C679        C688   1.395       .  A
N680        O695   1.262       .  A
N680        O696   1.262       .  A
N682        O693   1.262       .  A
N682        O694   1.262       .  A
C684        C685   1.399       .  A
C684        N689   1.428       .  S
C685        C686   1.405       .  A
C685        H690   1.087       .  S
C686        C687   1.419       .  A
C687        C688   1.394       .  A
C687        N691   1.429       .  S
C688        H692   1.088       .  S
N689        O699   1.262       .  A
N689        O700   1.262       .  A
N691        O697   1.262       .  A
N691        O698   1.262       .  A
C701        C702   1.401       .  A
C701        C706   1.404       .  A
C701        H711   1.086       .  S
C702        C707   1.473       .  S
C702        C703   1.405       .  A
C703        C704   1.392       .  A
C703        N708   1.430       .  S
C704        C705   1.407       .  A
C704        H709   1.086       .  S
C705        C706   1.416       .  A
C706        N710   1.428       .  S
C707        C712   1.405       .  A
C707        C716   1.401       .  A
N708        O723   1.262       .  A
N708        O724   1.261       .  A
N710        O721   1.262       .  A
N710        O722   1.262       .  A
C712        C713   1.394       .  A
C712        N717   1.429       .  S
C713        C714   1.406       .  A
C713        H718   1.086       .  S
C714        C715   1.414       .  A
C715        C716   1.401       .  A
C715        N719   1.428       .  S
C716        H720   1.087       .  S
N717        O727   1.262       .  A
N717        O728   1.261       .  A
N719        O725   1.262       .  A
N719        O726   1.262       .  A
C729        C730   1.406   1_655  A
C729        C734   1.400       .  A
C729        H739   1.085       .  S
C730        C735   1.486       .  S
C730        C731   1.409       .  A
C731        C732   1.400   1_455  A
C731        N736   1.429       .  S
C732        C733   1.407   1_556  A
C732        H737   1.085   1_556  S
C733        C734   1.411   1_554  A
C734        N738   1.428       .  S
C735        C740   1.413       .  A
C735        C744   1.401       .  A
N736        O751   1.262       .  A
N736        O752   1.262       .  A
N738        O749   1.262       .  A
N738        O750   1.262   1_556  A
C740        C741   1.403       .  A
C740        N745   1.428       .  S
C741        C742   1.406       .  A
C741        H746   1.087       .  S
C742        C743   1.415   1_565  A
C743        C744   1.397   1_545  A
C743        N747   1.429       .  S
C744        H748   1.088       .  S
N745        O755   1.262       .  A
N745        O756   1.262       .  A
N747        O753   1.262       .  A
N747        O754   1.262       .  A
C757        C758   1.398       .  A
C757        C762   1.401   1_655  A
C757        H767   1.086       .  S
C758        C763   1.476       .  S
C758        C759   1.406       .  A
C759        C760   1.399   1_655  A
C759        N764   1.428       .  S
C760        C761   1.406       .  A
C760        H765   1.085       .  S
C761        C762   1.420       .  A
C762        N766   1.429       .  S
C763        C768   1.404       .  A
C763        C772   1.402       .  A
N764        O779   1.262       .  A
N764        O780   1.262       .  A
N766        O777   1.262       .  A
N766        O778   1.262   1_545  A
C768        C769   1.393       .  A
C768        N773   1.428       .  S
C769        C770   1.407       .  A
C769        H774   1.086       .  S
C770        C771   1.418       .  A
C771        C772   1.406       .  A
C771        N775   1.428       .  S
C772        H776   1.086       .  S
N773        O783   1.262   1_655  A
N773        O784   1.262       .  A
N775        O781   1.262       .  A
N775        O782   1.262       .  A
C785        C786   1.404       .  A
C785        C790   1.400       .  A
C785        H795   1.086       .  S
C786        C791   1.480       .  S
C786        C787   1.410       .  A
C787        C788   1.391       .  A
C787        N792   1.430   1_655  S
C788        C789   1.405       .  A
C788        H793   1.086       .  S
C789        C790   1.410       .  A
C790        N794   1.428       .  S
C791        C796   1.412   1_655  A
C791        C800   1.399   1_656  A
N792        O807   1.262   1_556  A
N792        O808   1.262       .  A
N794        O805   1.262       .  A
N794        O806   1.262       .  A
C796        C797   1.397       .  A
C796        N801   1.429   1_455  S
C797        C798   1.403   1_556  A
C797        H802   1.087       .  S
C798        C799   1.413       .  A
C799        C800   1.394       .  A
C799        N803   1.426       .  S
C800        H804   1.087   1_455  S
N801        O811   1.262       .  A
N801        O812   1.262   1_655  A
N803        O809   1.260       .  A
N803        O810   1.262       .  A
C813        C814   1.396       .  A
C813        C818   1.390       .  A
C813        H823   1.088       .  S
C814        C819   1.468       .  S
C814        C815   1.406       .  A
C815        C816   1.399       .  A
C815        N820   1.427       .  S
C816        C817   1.405       .  A
C816        H821   1.087       .  S
C817        C818   1.416       .  A
C818        N822   1.429       .  S
C819        C824   1.407       .  A
C819        C828   1.398       .  A
N820        O835   1.262       .  A
N820        O836   1.262       .  A
N822        O833   1.262       .  A
N822        O834   1.262       .  A
C824        C825   1.390       .  A
C824        N829   1.429       .  S
C825        C826   1.403       .  A
C825        H830   1.088       .  S
C826        C827   1.420       .  A
C827        C828   1.400       .  A
C827        N831   1.430       .  S
C828        H832   1.089       .  S
N829        O839   1.262       .  A
N829        O840   1.261       .  A
N831        O837   1.262       .  A
N831        O838   1.262       .  A
C841        C842   1.398       .  A
C841        C846   1.399   1_455  A
C841        H851   1.087       .  S
C842        C847   1.475       .  S
C842        C843   1.410       .  A
C843        C844   1.399   1_455  A
C843        N848   1.429       .  S
C844        C845   1.403       .  A
C844        H849   1.087       .  S
C845        C846   1.414       .  A
C846        N850   1.429       .  S
C847        C852   1.405       .  A
C847        C856   1.401       .  A
N848        O863   1.262       .  A
N848        O864   1.262       .  A
N850        O861   1.262       .  A
N850        O862   1.262       .  A
C852        C853   1.393       .  A
C852        N857   1.429   1_455  S
C853        C854   1.407       .  A
C853        H858   1.086       .  S
C854        C855   1.418       .  A
C855        C856   1.404       .  A
C855        N859   1.428       .  S
C856        H860   1.087       .  S
N857        O867   1.262       .  A
N857        O868   1.262       .  A
N859        O865   1.262       .  A
N859        O866   1.262       .  A
C869        C870   1.402       .  A
C869        C874   1.401       .  A
C869        H879   1.086       .  S
C870        C875   1.476       .  S
C870        C871   1.408       .  A
C871        C872   1.395       .  A
C871        N876   1.429       .  S
C872        C873   1.403       .  A
C872        H877   1.086       .  S
C873        C874   1.416       .  A
C874        N878   1.429       .  S
C875        C880   1.409       .  A
C875        C884   1.399       .  A
N876        O891   1.262       .  A
N876        O892   1.262       .  A
N878        O889   1.262       .  A
N878        O890   1.262       .  A
C880        C881   1.399       .  A
C880        N885   1.428       .  S
C881        C882   1.404       .  A
C881        H886   1.086       .  S
C882        C883   1.416       .  A
C883        C884   1.397       .  A
C883        N887   1.429       .  S
C884        H888   1.087       .  S
N885        O895   1.262       .  A
N885        O896   1.262       .  A
N887        O893   1.262       .  A
N887        O894   1.262       .  A
C897        C898   1.402       .  A
C897        C902   1.397       .  A
C897        H907   1.087       .  S
C898        C903   1.485       .  S
C898        C899   1.411       .  A
C899        C900   1.397   1_565  A
C899        N904   1.429   1_565  S
C900        C901   1.406   1_545  A
C900        H905   1.087       .  S
C901        C902   1.415       .  A
C902        N906   1.429       .  S
C903        C908   1.410       .  A
C903        C912   1.407       .  A
N904        O919   1.262       .  A
N904        O920   1.262       .  A
N906        O917   1.261       .  A
N906        O918   1.262       .  A
C908        C909   1.391       .  A
C908        N913   1.429       .  S
C909        C910   1.402       .  A
C909        H914   1.087       .  S
C910        C911   1.411       .  A
C911        C912   1.405       .  A
C911        N915   1.428       .  S
C912        H916   1.086       .  S
N913        O923   1.262       .  A
N913        O924   1.262       .  A
N915        O921   1.262       .  A
N915        O922   1.262       .  A
C925        C926   1.404       .  A
C925        C930   1.401       .  A
C925        H935   1.086       .  S
C926        C931   1.489       .  S
C926        C927   1.413       .  A
C927        C928   1.398       .  A
C927        N932   1.429       .  S
C928        C929   1.403       .  A
C928        H933   1.087       .  S
C929        C930   1.413       .  A
C930        N934   1.428       .  S
C931        C936   1.414       .  A
C931        C940   1.400       .  A
N932        O947   1.262       .  A
N932        O948   1.262       .  A
N934        O945   1.262       .  A
N934        O946   1.262       .  A
C936        C937   1.401       .  A
C936        N941   1.429       .  S
C937        C938   1.404       .  A
C937        H942   1.087       .  S
C938        C939   1.419       .  A
C939        C940   1.399       .  A
C939        N943   1.429       .  S
C940        H944   1.087       .  S
N941        O951   1.262       .  A
N941        O952   1.262       .  A
N943        O949   1.262       .  A
N943        O950   1.262       .  A
C953        C954   1.400       .  A
C953        C958   1.402       .  A
C953        H963   1.087       .  S
C954        C959   1.470       .  S
C954        C955   1.407       .  A
C955        C956   1.393       .  A
C955        N960   1.429       .  S
C956        C957   1.403       .  A
C956        H961   1.086       .  S
C957        C958   1.414       .  A
C958        N962   1.427   1_545  S
C959        C964   1.406       .  A
C959        C968   1.395       .  A
N960        O975   1.262       .  A
N960        O976   1.262       .  A
N962        O973   1.262       .  A
N962        O974   1.262       .  A
C964        C965   1.401       .  A
C964        N969   1.428       .  S
C965        C966   1.407       .  A
C965        H970   1.086       .  S
C966        C967   1.417       .  A
C967        C968   1.393       .  A
C967        N971   1.429       .  S
C968        H972   1.087       .  S
N969        O979   1.262       .  A
N969        O980   1.262       .  A
N971        O977   1.262       .  A
N971        O978   1.262       .  A
C981        C982   1.398       .  A
C981        C986   1.393       .  A
C981        H991   1.087       .  S
C982        C987   1.480       .  S
C982        C983   1.411       .  A
C983        C984   1.398       .  A
C983        N988   1.428       .  S
C984        C985   1.403       .  A
C984        H989   1.087       .  S
C985        C986   1.420       .  A
C986        N990   1.430       .  S
C987        C992   1.411       .  A
C987        C996   1.405       .  A
N988       O1003   1.262       .  A
N988       O1004   1.262       .  A
N990       O1001   1.262       .  A
N990       O1002   1.262       .  A
C992        C993   1.389       .  A
C992        N997   1.429       .  S
C993        C994   1.400       .  A
C993        H998   1.087       .  S
C994        C995   1.412       .  A
C995        C996   1.403       .  A
C995        N999   1.428       .  S
C996       H1000   1.086       .  S
N997       O1007   1.262       .  A
N997       O1008   1.262       .  A
N999       O1005   1.262       .  A
N999       O1006   1.262       .  A
C1009      C1010   1.400       .  A
C1009      C1014   1.401       .  A
C1009      H1019   1.086       .  S
C1010      C1015   1.474       .  S
C1010      C1011   1.406       .  A
C1011      C1012   1.393       .  A
C1011      N1016   1.428       .  S
C1012      C1013   1.404       .  A
C1012      H1017   1.086       .  S
C1013      C1014   1.418       .  A
C1014      N1018   1.429       .  S
C1015      C1020   1.406       .  A
C1015      C1024   1.398       .  A
N1016      O1031   1.262       .  A
N1016      O1032   1.262       .  A
N1018      O1029   1.262       .  A
N1018      O1030   1.262       .  A
C1020      C1021   1.395       .  A
C1020      N1025   1.428       .  S
C1021      C1022   1.405       .  A
C1021      H1026   1.086       .  S
C1022      C1023   1.420       .  A
C1023      C1024   1.399       .  A
C1023      N1027   1.429       .  S
C1024      H1028   1.087       .  S
N1025      O1035   1.262       .  A
N1025      O1036   1.262       .  A
N1027      O1033   1.262       .  A
N1027      O1034   1.262       .  A
C1037      C1038   1.398       .  A
C1037      C1042   1.394       .  A
C1037      H1047   1.088       .  S
C1038      C1043   1.483       .  S
C1038      C1039   1.416       .  A
C1039      C1040   1.401       .  A
C1039      N1044   1.429       .  S
C1040      C1041   1.399       .  A
C1040      H1045   1.088       .  S
C1041      C1042   1.410       .  A
C1042      N1046   1.425       .  S
C1043      C1048   1.412       .  A
C1043      C1052   1.401       .  A
N1044      O1059   1.262       .  A
N1044      O1060   1.261       .  A
N1046      O1057   1.261       .  A
N1046      O1058   1.262       .  A
C1048      C1049   1.397       .  A
C1048      N1053   1.430       .  S
C1049      C1050   1.406       .  A
C1049      H1054   1.085       .  S
C1050      C1051   1.415       .  A
C1051      C1052   1.399       .  A
C1051      N1055   1.428       .  S
C1052      H1056   1.085       .  S
N1053      O1063   1.262       .  A
N1053      O1064   1.262       .  A
N1055      O1061   1.262       .  A
N1055      O1062   1.262       .  A
C1065      C1066   1.401       .  A
C1065      C1070   1.400       .  A
C1065      H1075   1.086       .  S
C1066      C1071   1.476       .  S
C1066      C1067   1.410       .  A
C1067      C1068   1.398       .  A
C1067      N1072   1.429       .  S
C1068      C1069   1.402       .  A
C1068      H1073   1.086       .  S
C1069      C1070   1.412       .  A
C1070      N1074   1.429       .  S
C1071      C1076   1.408       .  A
C1071      C1080   1.402       .  A
N1072      O1087   1.262       .  A
N1072      O1088   1.262       .  A
N1074      O1085   1.262       .  A
N1074      O1086   1.262       .  A
C1076      C1077   1.398       .  A
C1076      N1081   1.428       .  S
C1077      C1078   1.403       .  A
C1077      H1082   1.086       .  S
C1078      C1079   1.412       .  A
C1079      C1080   1.397       .  A
C1079      N1083   1.429       .  S
C1080      H1084   1.086       .  S
N1081      O1091   1.262       .  A
N1081      O1092   1.261       .  A
N1083      O1089   1.262       .  A
N1083      O1090   1.262       .  A
C1093      C1094   1.402       .  A
C1093      C1098   1.401       .  A
C1093      H1103   1.086       .  S
C1094      C1099   1.480       .  S
C1094      C1095   1.410       .  A
C1095      C1096   1.397       .  A
C1095      N1100   1.429       .  S
C1096      C1097   1.402       .  A
C1096      H1101   1.086       .  S
C1097      C1098   1.412       .  A
C1098      N1102   1.428       .  S
C1099      C1104   1.411       .  A
C1099      C1108   1.401       .  A
N1100      O1115   1.262       .  A
N1100      O1116   1.262       .  A
N1102      O1113   1.262       .  A
N1102      O1114   1.262       .  A
C1104      C1105   1.395       .  A
C1104      N1109   1.429       .  S
C1105      C1106   1.404       .  A
C1105      H1110   1.087       .  S
C1106      C1107   1.414       .  A
C1107      C1108   1.401       .  A
C1107      N1111   1.428       .  S
C1108      H1112   1.087       .  S
N1109      O1119   1.262       .  A
N1109      O1120   1.262       .  A
N1111      O1117   1.262       .  A
N1111      O1118   1.262       .  A
C1121      C1122   1.403       .  A
C1121      C1126   1.406       .  A
C1121      H1131   1.086       .  S
C1122      C1127   1.483       .  S
C1122      C1123   1.406       .  A
C1123      C1124   1.398       .  A
C1123      N1128   1.428       .  S
C1124      C1125   1.409       .  A
C1124      H1129   1.085       .  S
C1125      C1126   1.417       .  A
C1126      N1130   1.428       .  S
C1127      C1132   1.408       .  A
C1127      C1136   1.401       .  A
N1128      O1143   1.262       .  A
N1128      O1144   1.262       .  A
N1130      O1141   1.262       .  A
N1130      O1142   1.262       .  A
C1132      C1133   1.401       .  A
C1132      N1137   1.429       .  S
C1133      C1134   1.410       .  A
C1133      H1138   1.086       .  S
C1134      C1135   1.415       .  A
C1135      C1136   1.403       .  A
C1135      N1139   1.427       .  S
C1136      H1140   1.086       .  S
N1137      O1147   1.262       .  A
N1137      O1148   1.262       .  A
N1139      O1145   1.262   1_545  A
N1139      O1146   1.262       .  A
C1149      C1150   1.397       .  A
C1149      C1154   1.397       .  A
C1149      H1159   1.087       .  S
C1150      C1155   1.475       .  S
C1150      C1151   1.407       .  A
C1151      C1152   1.400   1_565  A
C1151      N1156   1.428       .  S
C1152      C1153   1.407       .  A
C1152      H1157   1.086       .  S
C1153      C1154   1.419   1_545  A
C1154      N1158   1.428       .  S
C1155      C1160   1.405       .  A
C1155      C1164   1.401       .  A
N1156      O1171   1.262       .  A
N1156      O1172   1.262       .  A
N1158      O1169   1.262   1_565  A
N1158      O1170   1.262       .  A
C1160      C1161   1.392       .  A
C1160      N1165   1.428       .  S
C1161      C1162   1.406       .  A
C1161      H1166   1.086       .  S
C1162      C1163   1.418       .  A
C1163      C1164   1.404       .  A
C1163      N1167   1.429       .  S
C1164      H1168   1.087       .  S
N1165      O1175   1.262       .  A
N1165      O1176   1.262       .  A
N1167      O1173   1.262       .  A
N1167      O1174   1.262       .  A
C1177      C1178   1.404   1_655  A
C1177      C1182   1.403       .  A
C1177      H1187   1.087   1_655  S
C1178      C1183   1.487       .  S
C1178      C1179   1.412       .  A
C1179      C1180   1.402   1_455  A
C1179      N1184   1.428       .  S
C1180      C1181   1.405       .  A
C1180      H1185   1.086       .  S
C1181      C1182   1.414       .  A
C1182      N1186   1.428   1_545  S
C1183      C1188   1.414       .  A
C1183      C1192   1.402       .  A
N1184      O1199   1.262       .  A
N1184      O1200   1.262       .  A
N1186      O1197   1.262       .  A
N1186      O1198   1.262       .  A
C1188      C1189   1.403       .  A
C1188      N1193   1.428       .  S
C1189      C1190   1.404       .  A
C1189      H1194   1.087       .  S
C1190      C1191   1.414       .  A
C1191      C1192   1.396       .  A
C1191      N1195   1.429       .  S
C1192      H1196   1.087       .  S
N1193      O1203   1.262       .  A
N1193      O1204   1.262       .  A
N1195      O1201   1.262       .  A
N1195      O1202   1.262       .  A
C1205      C1206   1.401       .  A
C1205      C1210   1.397       .  A
C1205      H1215   1.087       .  S
C1206      C1211   1.474       .  S
C1206      C1207   1.407       .  A
C1207      C1208   1.396       .  A
C1207      N1212   1.429       .  S
C1208      C1209   1.407       .  A
C1208      H1213   1.086       .  S
C1209      C1210   1.413       .  A
C1210      N1214   1.428       .  S
C1211      C1216   1.407       .  A
C1211      C1220   1.401       .  A
N1212      O1227   1.262       .  A
N1212      O1228   1.262       .  A
N1214      O1225   1.262       .  A
N1214      O1226   1.262       .  A
C1216      C1217   1.395       .  A
C1216      N1221   1.429       .  S
C1217      C1218   1.407       .  A
C1217      H1222   1.086       .  S
C1218      C1219   1.415       .  A
C1219      C1220   1.397       .  A
C1219      N1223   1.429       .  S
C1220      H1224   1.087       .  S
N1221      O1231   1.262       .  A
N1221      O1232   1.262       .  A
N1223      O1229   1.262       .  A
N1223      O1230   1.262       .  A
C1233      C1234   1.401       .  A
C1233      C1238   1.405       .  A
C1233      H1243   1.085       .  S
C1234      C1239   1.473       .  S
C1234      C1235   1.403       .  A
C1235      C1236   1.393       .  A
C1235      N1240   1.429       .  S
C1236      C1237   1.408       .  A
C1236      H1241   1.085       .  S
C1237      C1238   1.417       .  A
C1238      N1242   1.428       .  S
C1239      C1244   1.407       .  A
C1239      C1248   1.397       .  A
N1240      O1255   1.262       .  A
N1240      O1256   1.262       .  A
N1242      O1253   1.262       .  A
N1242      O1254   1.262       .  A
C1244      C1245   1.398       .  A
C1244      N1249   1.428       .  S
C1245      C1246   1.404       .  A
C1245      H1250   1.086       .  S
C1246      C1247   1.418       .  A
C1247      C1248   1.399       .  A
C1247      N1251   1.429       .  S
C1248      H1252   1.087       .  S
N1249      O1259   1.262       .  A
N1249      O1260   1.262       .  A
N1251      O1257   1.262       .  A
N1251      O1258   1.262       .  A
C1261      C1262   1.400       .  A
C1261      C1266   1.399       .  A
C1261      H1271   1.086       .  S
C1262      C1267   1.484       .  S
C1262      C1263   1.411       .  A
C1263      C1264   1.400       .  A
C1263      N1268   1.428       .  S
C1264      C1265   1.405       .  A
C1264      H1269   1.086       .  S
C1265      C1266   1.417       .  A
C1266      N1270   1.429       .  S
C1267      C1272   1.410       .  A
C1267      C1276   1.403       .  A
N1268      O1283   1.262       .  A
N1268      O1284   1.262       .  A
N1270      O1281   1.262       .  A
N1270      O1282   1.262       .  A
C1272      C1273   1.395       .  A
C1272      N1277   1.430       .  S
C1273      C1274   1.406       .  A
C1273      H1278   1.085       .  S
C1274      C1275   1.416       .  A
C1275      C1276   1.404       .  A
C1275      N1279   1.428       .  S
C1276      H1280   1.086       .  S
N1277      O1287   1.262       .  A
N1277      O1288   1.262       .  A
N1279      O1285   1.262       .  A
N1279      O1286   1.262       .  A
C1289      C1290   1.401       .  A
C1289      C1294   1.393   1_655  A
C1289      H1299   1.086       .  S
C1290      C1295   1.474       .  S
C1290      C1291   1.410       .  A
C1291      C1292   1.398       .  A
C1291      N1296   1.429       .  S
C1292      C1293   1.406   1_655  A
C1292      H1297   1.085   1_655  S
C1293      C1294   1.412       .  A
C1294      N1298   1.428       .  S
C1295      C1300   1.409       .  A
C1295      C1304   1.400       .  A
N1296      O1311   1.262       .  A
N1296      O1312   1.262       .  A
N1298      O1309   1.261       .  A
N1298      O1310   1.262       .  A
C1300      C1301   1.400       .  A
C1300      N1305   1.428       .  S
C1301      C1302   1.403       .  A
C1301      H1306   1.086       .  S
C1302      C1303   1.413       .  A
C1303      C1304   1.390       .  A
C1303      N1307   1.430       .  S
C1304      H1308   1.087       .  S
N1305      O1315   1.262       .  A
N1305      O1316   1.262       .  A
N1307      O1313   1.262       .  A
N1307      O1314   1.262       .  A
C1317      C1318   1.399       .  A
C1317      C1322   1.401       .  A
C1317      H1327   1.087       .  S
C1318      C1323   1.480       .  S
C1318      C1319   1.410       .  A
C1319      C1320   1.398       .  A
C1319      N1324   1.428       .  S
C1320      C1321   1.402       .  A
C1320      H1325   1.087       .  S
C1321      C1322   1.418       .  A
C1322      N1326   1.429       .  S
C1323      C1328   1.407       .  A
C1323      C1332   1.403       .  A
N1324      O1339   1.262       .  A
N1324      O1340   1.262       .  A
N1326      O1337   1.262       .  A
N1326      O1338   1.262       .  A
C1328      C1329   1.395       .  A
C1328      N1333   1.430       .  S
C1329      C1330   1.408       .  A
C1329      H1334   1.085       .  S
C1330      C1331   1.416       .  A
C1331      C1332   1.406       .  A
C1331      N1335   1.428       .  S
C1332      H1336   1.085       .  S
N1333      O1343   1.262       .  A
N1333      O1344   1.262       .  A
N1335      O1341   1.262       .  A
N1335      O1342   1.262       .  A
C1345      C1346   1.401       .  A
C1345      C1350   1.401       .  A
C1345      H1355   1.087       .  S
C1346      C1351   1.483       .  S
C1346      C1347   1.409       .  A
C1347      C1348   1.398       .  A
C1347      N1352   1.429       .  S
C1348      C1349   1.407       .  A
C1348      H1353   1.086       .  S
C1349      C1350   1.416       .  A
C1350      N1354   1.428       .  S
C1351      C1356   1.409       .  A
C1351      C1360   1.400       .  A
N1352      O1367   1.262   1_545  A
N1352      O1368   1.262       .  A
N1354      O1365   1.262       .  A
N1354      O1366   1.262       .  A
C1356      C1357   1.399       .  A
C1356      N1361   1.429       .  S
C1357      C1358   1.407       .  A
C1357      H1362   1.086       .  S
C1358      C1359   1.419       .  A
C1359      C1360   1.401       .  A
C1359      N1363   1.428   1_556  S
C1360      H1364   1.087       .  S
N1361      O1371   1.262       .  A
N1361      O1372   1.262       .  A
N1363      O1369   1.262       .  A
N1363      O1370   1.262   1_545  A
C1373      C1374   1.399       .  A
C1373      C1378   1.397       .  A
C1373      H1383   1.086       .  S
C1374      C1379   1.471       .  S
C1374      C1375   1.406       .  A
C1375      C1376   1.395       .  A
C1375      N1380   1.428       .  S
C1376      C1377   1.405       .  A
C1376      H1381   1.086       .  S
C1377      C1378   1.416       .  A
C1378      N1382   1.429       .  S
C1379      C1384   1.406   1_565  A
C1379      C1388   1.398       .  A
N1380      O1395   1.262       .  A
N1380      O1396   1.261       .  A
N1382      O1393   1.262       .  A
N1382      O1394   1.262       .  A
C1384      C1385   1.394       .  A
C1384      N1389   1.427       .  S
C1385      C1386   1.403       .  A
C1385      H1390   1.086       .  S
C1386      C1387   1.421       .  A
C1387      C1388   1.398   1_545  A
C1387      N1391   1.430       .  S
C1388      H1392   1.087       .  S
N1389      O1399   1.262       .  A
N1389      O1400   1.261       .  A
N1391      O1397   1.262       .  A
N1391      O1398   1.262       .  A
C1401      C1402   1.402       .  A
C1401      C1406   1.400       .  A
C1401      H1411   1.086       .  S
C1402      C1407   1.477       .  S
C1402      C1403   1.410       .  A
C1403      C1404   1.392       .  A
C1403      N1408   1.429       .  S
C1404      C1405   1.402       .  A
C1404      H1409   1.086       .  S
C1405      C1406   1.414       .  A
C1406      N1410   1.429       .  S
C1407      C1412   1.412       .  A
C1407      C1416   1.398       .  A
N1408      O1423   1.262       .  A
N1408      O1424   1.262       .  A
N1410      O1421   1.262       .  A
N1410      O1422   1.262       .  A
C1412      C1413   1.397       .  A
C1412      N1417   1.428       .  S
C1413      C1414   1.400       .  A
C1413      H1418   1.087       .  S
C1414      C1415   1.416       .  A
C1415      C1416   1.391       .  A
C1415      N1419   1.430       .  S
C1416      H1420   1.087       .  S
N1417      O1427   1.262       .  A
N1417      O1428   1.262       .  A
N1419      O1425   1.262       .  A
N1419      O1426   1.262       .  A
C1429      C1430   1.401       .  A
C1429      C1434   1.398       .  A
C1429      H1439   1.087       .  S
C1430      C1435   1.474       .  S
C1430      C1431   1.408       .  A
C1431      C1432   1.394       .  A
C1431      N1436   1.428       .  S
C1432      C1433   1.402       .  A
C1432      H1437   1.087       .  S
C1433      C1434   1.413       .  A
C1434      N1438   1.429       .  S
C1435      C1440   1.406       .  A
C1435      C1444   1.401       .  A
N1436      O1451   1.262       .  A
N1436      O1452   1.261       .  A
N1438      O1449   1.262       .  A
N1438      O1450   1.262       .  A
C1440      C1441   1.393       .  A
C1440      N1445   1.428       .  S
C1441      C1442   1.405       .  A
C1441      H1446   1.086       .  S
C1442      C1443   1.416       .  A
C1443      C1444   1.399       .  A
C1443      N1447   1.429       .  S
C1444      H1448   1.086       .  S
N1445      O1455   1.262       .  A
N1445      O1456   1.262   1_545  A
N1447      O1453   1.262       .  A
N1447      O1454   1.262       .  A
C1457      C1458   1.404       .  A
C1457      C1462   1.407       .  A
C1457      H1467   1.086       .  S
C1458      C1463   1.489       .  S
C1458      C1459   1.409       .  A
C1459      C1460   1.398       .  A
C1459      N1464   1.428       .  S
C1460      C1461   1.407       .  A
C1460      H1465   1.085       .  S
C1461      C1462   1.419       .  A
C1462      N1466   1.429       .  S
C1463      C1468   1.410       .  A
C1463      C1472   1.403       .  A
N1464      O1479   1.262       .  A
N1464      O1480   1.262       .  A
N1466      O1477   1.262       .  A
N1466      O1478   1.262       .  A
C1468      C1469   1.400       .  A
C1468      N1473   1.428       .  S
C1469      C1470   1.406       .  A
C1469      H1474   1.084       .  S
C1470      C1471   1.419       .  A
C1471      C1472   1.406       .  A
C1471      N1475   1.429       .  S
C1472      H1476   1.085       .  S
N1473      O1483   1.262       .  A
N1473      O1484   1.262       .  A
N1475      O1481   1.262       .  A
N1475      O1482   1.262       .  A
C1485      C1486   1.402       .  A
C1485      C1490   1.401       .  A
C1485      H1495   1.086       .  S
C1486      C1491   1.474       .  S
C1486      C1487   1.405       .  A
C1487      C1488   1.393       .  A
C1487      N1492   1.429       .  S
C1488      C1489   1.407       .  A
C1488      H1493   1.086       .  S
C1489      C1490   1.412       .  A
C1490      N1494   1.428       .  S
C1491      C1496   1.410       .  A
C1491      C1500   1.399       .  A
N1492      O1507   1.262       .  A
N1492      O1508   1.262       .  A
N1494      O1505   1.262       .  A
N1494      O1506   1.262       .  A
C1496      C1497   1.397       .  A
C1496      N1501   1.428       .  S
C1497      C1498   1.399       .  A
C1497      H1502   1.086       .  S
C1498      C1499   1.412       .  A
C1499      C1500   1.395       .  A
C1499      N1503   1.430       .  S
C1500      H1504   1.087       .  S
N1501      O1511   1.262       .  A
N1501      O1512   1.262       .  A
N1503      O1509   1.262       .  A
N1503      O1510   1.262       .  A
C1513      C1514   1.402       .  A
C1513      C1518   1.400       .  A
C1513      H1523   1.086       .  S
C1514      C1519   1.479       .  S
C1514      C1515   1.407       .  A
C1515      C1516   1.398       .  A
C1515      N1520   1.428       .  S
C1516      C1517   1.406       .  A
C1516      H1521   1.085       .  S
C1517      C1518   1.414       .  A
C1518      N1522   1.429       .  S
C1519      C1524   1.409       .  A
C1519      C1528   1.401       .  A
N1520      O1535   1.262       .  A
N1520      O1536   1.261       .  A
N1522      O1533   1.262       .  A
N1522      O1534   1.262       .  A
C1524      C1525   1.397       .  A
C1524      N1529   1.429       .  S
C1525      C1526   1.405       .  A
C1525      H1530   1.086       .  S
C1526      C1527   1.418       .  A
C1527      C1528   1.403       .  A
C1527      N1531   1.428       .  S
C1528      H1532   1.087       .  S
N1529      O1539   1.262       .  A
N1529      O1540   1.262       .  A
N1531      O1537   1.262       .  A
N1531      O1538   1.262       .  A
C1541      C1542   1.401       .  A
C1541      C1546   1.404       .  A
C1541      H1551   1.085       .  S
C1542      C1547   1.480       .  S
C1542      C1543   1.407       .  A
C1543      C1544   1.395   1_556  A
C1543      N1548   1.428       .  S
C1544      C1545   1.406       .  A
C1544      H1549   1.085       .  S
C1545      C1546   1.418   1_554  A
C1546      N1550   1.428       .  S
C1547      C1552   1.408       .  A
C1547      C1556   1.400       .  A
N1548      O1563   1.262       .  A
N1548      O1564   1.262   1_556  A
N1550      O1561   1.262   1_556  A
N1550      O1562   1.262       .  A
C1552      C1553   1.399       .  A
C1552      N1557   1.428       .  S
C1553      C1554   1.407       .  A
C1553      H1558   1.086       .  S
C1554      C1555   1.418       .  A
C1555      C1556   1.400       .  A
C1555      N1559   1.428       .  S
C1556      H1560   1.087       .  S
N1557      O1567   1.262       .  A
N1557      O1568   1.262   1_556  A
N1559      O1565   1.262       .  A
N1559      O1566   1.262       .  A
C1569      C1570   1.403       .  A
C1569      C1574   1.401       .  A
C1569      H1579   1.087       .  S
C1570      C1575   1.474       .  S
C1570      C1571   1.404       .  A
C1571      C1572   1.395       .  A
C1571      N1576   1.429       .  S
C1572      C1573   1.408       .  A
C1572      H1577   1.087       .  S
C1573      C1574   1.412       .  A
C1574      N1578   1.428       .  S
C1575      C1580   1.408       .  A
C1575      C1584   1.400       .  A
N1576      O1591   1.262       .  A
N1576      O1592   1.261       .  A
N1578      O1589   1.262       .  A
N1578      O1590   1.262       .  A
C1580      C1581   1.395       .  A
C1580      N1585   1.429       .  S
C1581      C1582   1.404       .  A
C1581      H1586   1.087       .  S
C1582      C1583   1.417       .  A
C1583      C1584   1.401       .  A
C1583      N1587   1.428       .  S
C1584      H1588   1.087       .  S
N1585      O1595   1.262       .  A
N1585      O1596   1.262       .  A
N1587      O1593   1.262       .  A
N1587      O1594   1.262       .  A
C1597      C1598   1.398       .  A
C1597      C1602   1.398       .  A
C1597      H1607   1.086       .  S
C1598      C1603   1.465       .  S
C1598      C1599   1.405       .  A
C1599      C1600   1.392       .  A
C1599      N1604   1.428       .  S
C1600      C1601   1.402       .  A
C1600      H1605   1.085       .  S
C1601      C1602   1.416       .  A
C1602      N1606   1.429       .  S
C1603      C1608   1.406       .  A
C1603      C1612   1.398       .  A
N1604      O1619   1.262       .  A
N1604      O1620   1.262       .  A
N1606      O1617   1.262       .  A
N1606      O1618   1.262       .  A
C1608      C1609   1.394       .  A
C1608      N1613   1.429       .  S
C1609      C1610   1.402       .  A
C1609      H1614   1.086       .  S
C1610      C1611   1.414       .  A
C1611      C1612   1.398       .  A
C1611      N1615   1.429       .  S
C1612      H1616   1.086       .  S
N1613      O1623   1.262       .  A
N1613      O1624   1.262       .  A
N1615      O1621   1.262       .  A
N1615      O1622   1.262       .  A
C1625      C1626   1.402       .  A
C1625      C1630   1.403       .  A
C1625      H1635   1.086   1_556  S
C1626      C1631   1.481       .  S
C1626      C1627   1.409       .  A
C1627      C1628   1.394       .  A
C1627      N1632   1.428       .  S
C1628      C1629   1.403       .  A
C1628      H1633   1.086       .  S
C1629      C1630   1.417       .  A
C1630      N1634   1.429       .  S
C1631      C1636   1.409   1_556  A
C1631      C1640   1.401       .  A
N1632      O1647   1.262       .  A
N1632      O1648   1.262       .  A
N1634      O1645   1.262       .  A
N1634      O1646   1.262       .  A
C1636      C1637   1.397       .  A
C1636      N1641   1.429       .  S
C1637      C1638   1.407       .  A
C1637      H1642   1.088       .  S
C1638      C1639   1.415   1_554  A
C1639      C1640   1.400       .  A
C1639      N1643   1.428       .  S
C1640      H1644   1.088       .  S
N1641      O1651   1.262       .  A
N1641      O1652   1.262       .  A
N1643      O1649   1.262       .  A
N1643      O1650   1.262       .  A
C1653      C1654   1.402       .  A
C1653      C1658   1.400       .  A
C1653      H1663   1.086   1_556  S
C1654      C1659   1.478       .  S
C1654      C1655   1.407       .  A
C1655      C1656   1.395       .  A
C1655      N1660   1.428       .  S
C1656      C1657   1.404       .  A
C1656      H1661   1.086       .  S
C1657      C1658   1.414       .  A
C1658      N1662   1.429       .  S
C1659      C1664   1.410       .  A
C1659      C1668   1.399   1_565  A
N1660      O1675   1.262   1_565  A
N1660      O1676   1.262       .  A
N1662      O1673   1.262       .  A
N1662      O1674   1.262   1_556  A
C1664      C1665   1.397       .  A
C1664      N1669   1.429       .  S
C1665      C1666   1.401   1_566  A
C1665      H1670   1.088       .  S
C1666      C1667   1.416   1_554  A
C1667      C1668   1.400       .  A
C1667      N1671   1.429   1_556  S
C1668      H1672   1.089       .  S
N1669      O1679   1.262       .  A
N1669      O1680   1.262       .  A
N1671      O1677   1.262       .  A
N1671      O1678   1.262   1_554  A
C1681      C1682   1.403       .  A
C1681      C1686   1.404       .  A
C1681      H1691   1.087       .  S
C1682      C1687   1.485       .  S
C1682      C1683   1.408       .  A
C1683      C1684   1.396       .  A
C1683      N1688   1.428       .  S
C1684      C1685   1.406       .  A
C1684      H1689   1.086       .  S
C1685      C1686   1.418       .  A
C1686      N1690   1.429       .  S
C1687      C1692   1.409   1_565  A
C1687      C1696   1.403   1_565  A
N1688      O1703   1.262       .  A
N1688      O1704   1.262       .  A
N1690      O1701   1.262       .  A
N1690      O1702   1.262       .  A
C1692      C1693   1.397       .  A
C1692      N1697   1.428   1_545  S
C1693      C1694   1.404       .  A
C1693      H1698   1.086       .  S
C1694      C1695   1.415       .  A
C1695      C1696   1.404       .  A
C1695      N1699   1.428       .  S
C1696      H1700   1.086   1_545  S
N1697      O1707   1.262   1_565  A
N1697      O1708   1.262       .  A
N1699      O1705   1.262       .  A
N1699      O1706   1.262       .  A
C1709      C1710   1.396       .  A
C1709      C1714   1.394       .  A
C1709      H1719   1.087       .  S
C1710      C1715   1.469       .  S
C1710      C1711   1.405       .  A
C1711      C1712   1.397       .  A
C1711      N1716   1.428       .  S
C1712      C1713   1.408       .  A
C1712      H1717   1.086       .  S
C1713      C1714   1.418       .  A
C1714      N1718   1.429       .  S
C1715      C1720   1.407       .  A
C1715      C1724   1.399       .  A
N1716      O1731   1.262       .  A
N1716      O1732   1.262       .  A
N1718      O1729   1.262       .  A
N1718      O1730   1.262       .  A
C1720      C1721   1.394       .  A
C1720      N1725   1.429       .  S
C1721      C1722   1.403       .  A
C1721      H1726   1.086       .  S
C1722      C1723   1.415       .  A
C1723      C1724   1.400       .  A
C1723      N1727   1.429       .  S
C1724      H1728   1.086       .  S
N1725      O1735   1.262       .  A
N1725      O1736   1.262       .  A
N1727      O1733   1.262       .  A
N1727      O1734   1.262       .  A
C1737      C1738   1.402       .  A
C1737      C1742   1.403       .  A
C1737      H1747   1.087       .  S
C1738      C1743   1.481       .  S
C1738      C1739   1.410       .  A
C1739      C1740   1.398       .  A
C1739      N1744   1.427       .  S
C1740      C1741   1.400       .  A
C1740      H1745   1.087       .  S
C1741      C1742   1.414       .  A
C1742      N1746   1.429       .  S
C1743      C1748   1.409       .  A
C1743      C1752   1.400       .  A
N1744      O1759   1.262   1_556  A
N1744      O1760   1.261   1_556  A
N1746      O1757   1.262       .  A
N1746      O1758   1.262       .  A
C1748      C1749   1.402       .  A
C1748      N1753   1.429       .  S
C1749      C1750   1.406   1_556  A
C1749      H1754   1.086       .  S
C1750      C1751   1.413   1_554  A
C1751      C1752   1.401       .  A
C1751      N1755   1.428   1_556  S
C1752      H1756   1.086       .  S
N1753      O1763   1.262       .  A
N1753      O1764   1.262       .  A
N1755      O1761   1.262   1_554  A
N1755      O1762   1.261       .  A
C1765      C1766   1.403       .  A
C1765      C1770   1.402       .  A
C1765      H1775   1.086       .  S
C1766      C1771   1.489       .  S
C1766      C1767   1.413       .  A
C1767      C1768   1.395       .  A
C1767      N1772   1.429       .  S
C1768      C1769   1.403       .  A
C1768      H1773   1.087   1_556  S
C1769      C1770   1.417       .  A
C1770      N1774   1.428       .  S
C1771      C1776   1.413       .  A
C1771      C1780   1.403       .  A
N1772      O1787   1.262   1_556  A
N1772      O1788   1.262       .  A
N1774      O1785   1.262       .  A
N1774      O1786   1.262       .  A
C1776      C1777   1.400       .  A
C1776      N1781   1.429       .  S
C1777      C1778   1.404       .  A
C1777      H1782   1.085       .  S
C1778      C1779   1.413       .  A
C1779      C1780   1.400       .  A
C1779      N1783   1.429       .  S
C1780      H1784   1.084       .  S
N1781      O1791   1.262       .  A
N1781      O1792   1.262       .  A
N1783      O1789   1.262       .  A
N1783      O1790   1.262       .  A
C1793      C1794   1.403       .  A
C1793      C1798   1.401       .  A
C1793      H1803   1.086       .  S
C1794      C1799   1.484       .  S
C1794      C1795   1.411       .  A
C1795      C1796   1.399       .  A
C1795      N1800   1.428       .  S
C1796      C1797   1.402       .  A
C1796      H1801   1.086       .  S
C1797      C1798   1.413       .  A
C1798      N1802   1.429       .  S
C1799      C1804   1.411       .  A
C1799      C1808   1.401       .  A
N1800      O1815   1.262       .  A
N1800      O1816   1.262       .  A
N1802      O1813   1.262       .  A
N1802      O1814   1.262       .  A
C1804      C1805   1.401       .  A
C1804      N1809   1.429       .  S
C1805      C1806   1.405       .  A
C1805      H1810   1.087       .  S
C1806      C1807   1.414       .  A
C1807      C1808   1.400       .  A
C1807      N1811   1.428       .  S
C1808      H1812   1.087       .  S
N1809      O1819   1.262       .  A
N1809      O1820   1.262       .  A
N1811      O1817   1.262       .  A
N1811      O1818   1.262       .  A
C1821      C1822   1.401       .  A
C1821      C1826   1.404       .  A
C1821      H1831   1.087       .  S
C1822      C1827   1.482       .  S
C1822      C1823   1.409       .  A
C1823      C1824   1.393       .  A
C1823      N1828   1.429       .  S
C1824      C1825   1.404       .  A
C1824      H1829   1.087       .  S
C1825      C1826   1.420       .  A
C1826      N1830   1.429       .  S
C1827      C1832   1.409       .  A
C1827      C1836   1.399       .  A
N1828      O1843   1.262       .  A
N1828      O1844   1.262       .  A
N1830      O1841   1.262       .  A
N1830      O1842   1.262       .  A
C1832      C1833   1.401       .  A
C1832      N1837   1.429       .  S
C1833      C1834   1.409       .  A
C1833      H1838   1.086       .  S
C1834      C1835   1.415       .  A
C1835      C1836   1.398       .  A
C1835      N1839   1.427       .  S
C1836      H1840   1.086       .  S
N1837      O1847   1.262       .  A
N1837      O1848   1.262       .  A
N1839      O1845   1.262       .  A
N1839      O1846   1.262       .  A
C1849      C1850   1.403       .  A
C1849      C1854   1.404       .  A
C1849      H1859   1.086       .  S
C1850      C1855   1.480       .  S
C1850      C1851   1.409       .  A
C1851      C1852   1.397       .  A
C1851      N1856   1.428       .  S
C1852      C1853   1.402       .  A
C1852      H1857   1.086       .  S
C1853      C1854   1.413       .  A
C1854      N1858   1.429       .  S
C1855      C1860   1.407       .  A
C1855      C1864   1.404       .  A
N1856      O1871   1.262       .  A
N1856      O1872   1.262       .  A
N1858      O1869   1.262       .  A
N1858      O1870   1.262       .  A
C1860      C1861   1.400       .  A
C1860      N1865   1.428       .  S
C1861      C1862   1.406       .  A
C1861      H1866   1.086       .  S
C1862      C1863   1.411       .  A
C1863      C1864   1.401       .  A
C1863      N1867   1.428       .  S
C1864      H1868   1.086       .  S
N1865      O1875   1.262       .  A
N1865      O1876   1.261       .  A
N1867      O1873   1.262       .  A
N1867      O1874   1.262       .  A
C1877      C1878   1.401       .  A
C1877      C1882   1.399       .  A
C1877      H1887   1.086       .  S
C1878      C1883   1.481       .  S
C1878      C1879   1.409       .  A
C1879      C1880   1.397       .  A
C1879      N1884   1.429       .  S
C1880      C1881   1.407       .  A
C1880      H1885   1.085       .  S
C1881      C1882   1.416       .  A
C1882      N1886   1.428       .  S
C1883      C1888   1.408       .  A
C1883      C1892   1.401       .  A
N1884      O1899   1.262       .  A
N1884      O1900   1.262       .  A
N1886      O1897   1.262       .  A
N1886      O1898   1.262       .  A
C1888      C1889   1.394       .  A
C1888      N1893   1.429       .  S
C1889      C1890   1.405       .  A
C1889      H1894   1.086       .  S
C1890      C1891   1.419       .  A
C1891      C1892   1.404       .  A
C1891      N1895   1.428       .  S
C1892      H1896   1.087       .  S
N1893      O1903   1.262       .  A
N1893      O1904   1.262       .  A
N1895      O1901   1.262       .  A
N1895      O1902   1.262       .  A
C1905      C1906   1.400       .  A
C1905      C1910   1.401       .  A
C1905      H1915   1.087       .  S
C1906      C1911   1.478       .  S
C1906      C1907   1.409       .  A
C1907      C1908   1.396       .  A
C1907      N1912   1.428       .  S
C1908      C1909   1.404       .  A
C1908      H1913   1.086       .  S
C1909      C1910   1.418       .  A
C1910      N1914   1.428       .  S
C1911      C1916   1.410       .  A
C1911      C1920   1.397       .  A
N1912      O1927   1.262       .  A
N1912      O1928   1.262       .  A
N1914      O1925   1.261       .  A
N1914      O1926   1.262       .  A
C1916      C1917   1.402       .  A
C1916      N1921   1.428       .  S
C1917      C1918   1.406       .  A
C1917      H1922   1.086       .  S
C1918      C1919   1.418       .  A
C1919      C1920   1.396       .  A
C1919      N1923   1.429       .  S
C1920      H1924   1.087       .  S
N1921      O1931   1.262       .  A
N1921      O1932   1.262       .  A
N1923      O1929   1.262       .  A
N1923      O1930   1.262       .  A
C1933      C1934   1.406       .  A
C1933      C1938   1.402       .  A
C1933      H1943   1.087       .  S
C1934      C1939   1.490   1_655  S
C1934      C1935   1.413       .  A
C1935      C1936   1.396       .  A
C1935      N1940   1.429   1_655  S
C1936      C1937   1.403       .  A
C1936      H1941   1.088       .  S
C1937      C1938   1.411       .  A
C1938      N1942   1.428       .  S
C1939      C1944   1.413       .  A
C1939      C1948   1.404       .  A
N1940      O1955   1.262       .  A
N1940      O1956   1.262       .  A
N1942      O1953   1.262       .  A
N1942      O1954   1.262       .  A
C1944      C1945   1.396       .  A
C1944      N1949   1.430       .  S
C1945      C1946   1.406       .  A
C1945      H1950   1.087       .  S
C1946      C1947   1.414       .  A
C1947      C1948   1.401       .  A
C1947      N1951   1.428       .  S
C1948      H1952   1.087       .  S
N1949      O1959   1.262   1_455  A
N1949      O1960   1.262       .  A
N1951      O1957   1.262       .  A
N1951      O1958   1.262       .  A
C1961      C1962   1.400       .  A
C1961      C1966   1.403       .  A
C1961      H1971   1.086       .  S
C1962      C1967   1.475       .  S
C1962      C1963   1.404       .  A
C1963      C1964   1.395       .  A
C1963      N1968   1.428       .  S
C1964      C1965   1.407       .  A
C1964      H1969   1.086       .  S
C1965      C1966   1.419       .  A
C1966      N1970   1.429       .  S
C1967      C1972   1.404       .  A
C1967      C1976   1.401       .  A
N1968      O1983   1.262       .  A
N1968      O1984   1.262       .  A
N1970      O1981   1.262       .  A
N1970      O1982   1.262       .  A
C1972      C1973   1.394       .  A
C1972      N1977   1.428       .  S
C1973      C1974   1.405       .  A
C1973      H1978   1.085       .  S
C1974      C1975   1.416       .  A
C1975      C1976   1.404       .  A
C1975      N1979   1.428       .  S
C1976      H1980   1.085       .  S
N1977      O1987   1.262       .  A
N1977      O1988   1.262       .  A
N1979      O1985   1.262       .  A
N1979      O1986   1.262       .  A
C1989      C1990   1.401       .  A
C1989      C1994   1.397       .  A
C1989      H1999   1.087       .  S
C1990      C1995   1.478       .  S
C1990      C1991   1.411       .  A
C1991      C1992   1.399       .  A
C1991      N1996   1.429       .  S
C1992      C1993   1.404       .  A
C1992      H1997   1.087       .  S
C1993      C1994   1.412       .  A
C1994      N1998   1.428       .  S
C1995      C2000   1.406       .  A
C1995      C2004   1.405       .  A
N1996      O2011   1.262       .  A
N1996      O2012   1.262       .  A
N1998      O2009   1.262       .  A
N1998      O2010   1.262       .  A
C2000      C2001   1.394       .  A
C2000      N2005   1.428       .  S
C2001      C2002   1.406       .  A
C2001      H2006   1.086       .  S
C2002      C2003   1.414       .  A
C2003      C2004   1.402       .  A
C2003      N2007   1.429       .  S
C2004      H2008   1.086       .  S
N2005      O2015   1.262       .  A
N2005      O2016   1.262       .  A
N2007      O2013   1.262       .  A
N2007      O2014   1.262       .  A
C2017      C2018   1.401       .  A
C2017      C2022   1.403       .  A
C2017      H2027   1.086       .  S
C2018      C2023   1.474       .  S
C2018      C2019   1.405       .  A
C2019      C2020   1.394       .  A
C2019      N2024   1.428       .  S
C2020      C2021   1.404       .  A
C2020      H2025   1.086       .  S
C2021      C2022   1.416       .  A
C2022      N2026   1.428       .  S
C2023      C2028   1.407       .  A
C2023      C2032   1.399       .  A
N2024      O2039   1.262   1_455  A
N2024      O2040   1.262   1_455  A
N2026      O2037   1.262       .  A
N2026      O2038   1.262       .  A
C2028      C2029   1.396   1_455  A
C2028      N2033   1.429       .  S
C2029      C2030   1.404       .  A
C2029      H2034   1.087       .  S
C2030      C2031   1.415       .  A
C2031      C2032   1.402   1_655  A
C2031      N2035   1.428       .  S
C2032      H2036   1.087       .  S
N2033      O2043   1.262       .  A
N2033      O2044   1.262       .  A
N2035      O2041   1.262       .  A
N2035      O2042   1.262       .  A
C2045      C2046   1.401       .  A
C2045      C2050   1.403       .  A
C2045      H2055   1.086       .  S
C2046      C2051   1.478       .  S
C2046      C2047   1.407       .  A
C2047      C2048   1.396       .  A
C2047      N2052   1.429       .  S
C2048      C2049   1.407       .  A
C2048      H2053   1.086       .  S
C2049      C2050   1.418       .  A
C2050      N2054   1.428       .  S
C2051      C2056   1.406       .  A
C2051      C2060   1.401       .  A
N2052      O2067   1.262       .  A
N2052      O2068   1.262       .  A
N2054      O2065   1.262       .  A
N2054      O2066   1.262       .  A
C2056      C2057   1.395   1_565  A
C2056      N2061   1.428       .  S
C2057      C2058   1.406       .  A
C2057      H2062   1.085       .  S
C2058      C2059   1.419       .  A
C2059      C2060   1.402   1_545  A
C2059      N2063   1.429       .  S
C2060      H2064   1.086       .  S
N2061      O2071   1.262       .  A
N2061      O2072   1.261       .  A
N2063      O2069   1.262       .  A
N2063      O2070   1.262       .  A
C2073      C2074   1.403       .  A
C2073      C2078   1.399       .  A
C2073      H2083   1.086       .  S
C2074      C2079   1.480       .  S
C2074      C2075   1.410       .  A
C2075      C2076   1.395       .  A
C2075      N2080   1.429       .  S
C2076      C2077   1.404       .  A
C2076      H2081   1.086       .  S
C2077      C2078   1.410       .  A
C2078      N2082   1.428       .  S
C2079      C2084   1.410       .  A
C2079      C2088   1.401       .  A
N2080      O2095   1.262       .  A
N2080      O2096   1.262       .  A
N2082      O2093   1.262       .  A
N2082      O2094   1.262       .  A
C2084      C2085   1.394       .  A
C2084      N2089   1.429       .  S
C2085      C2086   1.404       .  A
C2085      H2090   1.086       .  S
C2086      C2087   1.416       .  A
C2087      C2088   1.398       .  A
C2087      N2091   1.428       .  S
C2088      H2092   1.086       .  S
N2089      O2099   1.262       .  A
N2089      O2100   1.261       .  A
N2091      O2097   1.261       .  A
N2091      O2098   1.261       .  A
C2101      C2102   1.399       .  A
C2101      C2106   1.398       .  A
C2101      H2111   1.087       .  S
C2102      C2107   1.476       .  S
C2102      C2103   1.409       .  A
C2103      C2104   1.397       .  A
C2103      N2108   1.428       .  S
C2104      C2105   1.403       .  A
C2104      H2109   1.086       .  S
C2105      C2106   1.416       .  A
C2106      N2110   1.427       .  S
C2107      C2112   1.408       .  A
C2107      C2116   1.400       .  A
N2108      O2123   1.262       .  A
N2108      O2124   1.262       .  A
N2110      O2121   1.261       .  A
N2110      O2122   1.262       .  A
C2112      C2113   1.400       .  A
C2112      N2117   1.428       .  S
C2113      C2114   1.405       .  A
C2113      H2118   1.086       .  S
C2114      C2115   1.413       .  A
C2115      C2116   1.395       .  A
C2115      N2119   1.429       .  S
C2116      H2120   1.087       .  S
N2117      O2127   1.262       .  A
N2117      O2128   1.261       .  A
N2119      O2125   1.262       .  A
N2119      O2126   1.262       .  A
C2129      C2130   1.401       .  A
C2129      C2134   1.404       .  A
C2129      H2139   1.086       .  S
C2130      C2135   1.479       .  S
C2130      C2131   1.407       .  A
C2131      C2132   1.396       .  A
C2131      N2136   1.429       .  S
C2132      C2133   1.407       .  A
C2132      H2137   1.085       .  S
C2133      C2134   1.418       .  A
C2134      N2138   1.428       .  S
C2135      C2140   1.408       .  A
C2135      C2144   1.399       .  A
N2136      O2151   1.262       .  A
N2136      O2152   1.262       .  A
N2138      O2149   1.262       .  A
N2138      O2150   1.262       .  A
C2140      C2141   1.400       .  A
C2140      N2145   1.429       .  S
C2141      C2142   1.408       .  A
C2141      H2146   1.085       .  S
C2142      C2143   1.417       .  A
C2143      C2144   1.397       .  A
C2143      N2147   1.428       .  S
C2144      H2148   1.086       .  S
N2145      O2155   1.262       .  A
N2145      O2156   1.262       .  A
N2147      O2153   1.262       .  A
N2147      O2154   1.262       .  A
C2157      C2158   1.399       .  A
C2157      C2162   1.400       .  A
C2157      H2167   1.088       .  S
C2158      C2163   1.486       .  S
C2158      C2159   1.414   1_655  A
C2159      C2160   1.399       .  A
C2159      N2164   1.429       .  S
C2160      C2161   1.403       .  A
C2160      H2165   1.088       .  S
C2161      C2162   1.418   1_455  A
C2162      N2166   1.428       .  S
C2163      C2168   1.413       .  A
C2163      C2172   1.401       .  A
N2164      O2179   1.262   1_565  A
N2164      O2180   1.262       .  A
N2166      O2177   1.262       .  A
N2166      O2178   1.261       .  A
C2168      C2169   1.400       .  A
C2168      N2173   1.429       .  S
C2169      C2170   1.404       .  A
C2169      H2174   1.087       .  S
C2170      C2171   1.414       .  A
C2171      C2172   1.398       .  A
C2171      N2175   1.429   1_565  S
C2172      H2176   1.087       .  S
N2173      O2183   1.262       .  A
N2173      O2184   1.262       .  A
N2175      O2181   1.262       .  A
N2175      O2182   1.262       .  A
C2185      C2186   1.403       .  A
C2185      C2190   1.401       .  A
C2185      H2195   1.086       .  S
C2186      C2191   1.479       .  S
C2186      C2187   1.407       .  A
C2187      C2188   1.396       .  A
C2187      N2192   1.428       .  S
C2188      C2189   1.408       .  A
C2188      H2193   1.086       .  S
C2189      C2190   1.416       .  A
C2190      N2194   1.428       .  S
C2191      C2196   1.408       .  A
C2191      C2200   1.404       .  A
N2192      O2207   1.262       .  A
N2192      O2208   1.262       .  A
N2194      O2205   1.262       .  A
N2194      O2206   1.262       .  A
C2196      C2197   1.393       .  A
C2196      N2201   1.428       .  S
C2197      C2198   1.404       .  A
C2197      H2202   1.087       .  S
C2198      C2199   1.416       .  A
C2199      C2200   1.404       .  A
C2199      N2203   1.429       .  S
C2200      H2204   1.087       .  S
N2201      O2211   1.262       .  A
N2201      O2212   1.262       .  A
N2203      O2209   1.262       .  A
N2203      O2210   1.262       .  A
C2213      C2214   1.400       .  A
C2213      C2218   1.399       .  A
C2213      H2223   1.087       .  S
C2214      C2219   1.479       .  S
C2214      C2215   1.409       .  A
C2215      C2216   1.395       .  A
C2215      N2220   1.429       .  S
C2216      C2217   1.406       .  A
C2216      H2221   1.087       .  S
C2217      C2218   1.418       .  A
C2218      N2222   1.429       .  S
C2219      C2224   1.409       .  A
C2219      C2228   1.401       .  A
N2220      O2235   1.262       .  A
N2220      O2236   1.261       .  A
N2222      O2233   1.262       .  A
N2222      O2234   1.262       .  A
C2224      C2225   1.395   1_655  A
C2224      N2229   1.429       .  S
C2225      C2226   1.405       .  A
C2225      H2230   1.088       .  S
C2226      C2227   1.414   1_455  A
C2227      C2228   1.397       .  A
C2227      N2231   1.428       .  S
C2228      H2232   1.088       .  S
N2229      O2239   1.262   1_655  A
N2229      O2240   1.262       .  A
N2231      O2237   1.262       .  A
N2231      O2238   1.261       .  A
