geometry optimzed in LAMMPS
_audit_creation_date              2020-12-01 
_audit_creation_method            'lammps2cif' 
_symmetry_space_group_name_H-M    'P1' 
_symmetry_Int_Tables_number       1 
_symmetry_cell_setting            triclinic 
loop_ 
_symmetry_equiv_pos_as_xyz 
  x,y,z 
_cell_length_a                    30.40478688 
_cell_length_b                    30.41952214053856 
_cell_length_c                    86.86423160991585 
_cell_angle_alpha                 89.90966141111429 
_cell_angle_beta                  90.08486087375564 
_cell_angle_gamma                 120.26228782540481 
loop_ 
_atom_site_label 
_atom_site_type_symbol 
_atom_site_fract_x 
_atom_site_fract_y 
_atom_site_fract_z 
_atom_site_charge 
O1          O  0.70971243  0.54394767  0.09205532    -0.72900
O2          O  0.84015015  0.54936354  0.08503837    -0.73900
O3          O  0.77670703  0.57003992  0.06639650    -0.62500
O4          O  0.77321118  0.51856887  0.11046533    -0.70900
O5          O  0.73186827  0.43989478  0.10150036    -0.70500
O6          O  0.73411824  0.48963017  0.05882672    -0.61700
O7          O  0.80153959  0.46993678  0.07654323    -0.74200
O8          O  0.66571175  0.46396803  0.08405247    -0.73000
Cu9        Cu  0.77606318  0.54808600  0.08884464     1.04600
Cu10       Cu  0.73164959  0.46300309  0.07999439     1.04300
C11         C  0.66728640  0.50475696  0.08870917     0.93300
C12         C  0.84253121  0.51179543  0.07964467     0.92400
C13         C  0.75634614  0.53696163  0.05559476     0.84600
C14         C  0.75357213  0.47045891  0.11267590     0.90800
O15         O  0.84438917  0.55609102  0.90604255    -0.72900
O16         O  0.71263559  0.55102318  0.91021411    -0.73900
O17         O  0.79516813  0.57800991  0.93042831    -0.62500
O18         O  0.75739326  0.52540218  0.88606228    -0.70900
O19         O  0.72087979  0.44699470  0.89524486    -0.70500
O20         O  0.76317682  0.49812916  0.93816181    -0.61700
O21         O  0.67663472  0.47281737  0.91984887    -0.74200
O22         O  0.80998213  0.47578536  0.91361786    -0.73000
Cu23       Cu  0.77892408  0.55539171  0.90783177     1.04600
Cu24       Cu  0.74161196  0.47065688  0.91694207     1.04300
C25         C  0.84889953  0.51776763  0.90943616     0.93300
C26         C  0.67416273  0.51207195  0.91588476     0.92400
C27         C  0.78400465  0.54540205  0.94129255     0.84600
C28         C  0.73064073  0.47711323  0.88386727     0.90800
O29         O  0.31809892  0.51628383  0.09802578    -0.72900
O30         O  0.19417126  0.52674306  0.09396512    -0.73900
O31         O  0.24736185  0.49705934  0.07379090    -0.62500
O32         O  0.26482980  0.55015146  0.11804726    -0.70900
O33         O  0.30958215  0.62856209  0.10894271    -0.70500
O34         O  0.29741057  0.57668036  0.06602185    -0.61700
O35         O  0.23831668  0.60491674  0.08449371    -0.74200
O36         O  0.36681353  0.59633179  0.09045262    -0.73000
Cu37       Cu  0.25474709  0.51989054  0.09631585     1.04600
Cu38       Cu  0.30482062  0.60444855  0.08724794     1.04300
C39         C  0.36178560  0.55348175  0.09451027     0.93300
C40         C  0.19566670  0.56619673  0.08840254     0.92400
C41         C  0.26994832  0.52943303  0.06294480     0.84600
C42         C  0.28855729  0.59848043  0.12029252     0.90800
O43         O  0.28836487  0.57798694  0.94380526    -0.72900
O44         O  0.32021187  0.61728804  0.89960544    -0.73900
O45         O  0.23899766  0.59921996  0.91960121    -0.62500
O46         O  0.36831749  0.59333299  0.92362264    -0.70900
O47         O  0.32522264  0.51176406  0.91718394    -0.70500
O48         O  0.19827572  0.51709411  0.91355192    -0.61700
O49         O  0.27975014  0.53613806  0.89261037    -0.74200
O50         O  0.24716553  0.49590572  0.93801181    -0.73000
Cu51       Cu  0.30539890  0.59975367  0.92186518     1.04600
Cu52       Cu  0.26099889  0.51238544  0.91505366     1.04300
C53         C  0.26327554  0.53153673  0.94807537     0.93300
C54         C  0.30592124  0.58356301  0.88910716     0.92400
C55         C  0.19793651  0.55811633  0.91620772     0.84600
C56         C  0.36679239  0.55111986  0.92109279     0.90800
O57         O  0.54479032  0.28521070  0.72649515    -0.72900
O58         O  0.59564640  0.33255753  0.76903558    -0.73900
O59         O  0.56835890  0.24197016  0.75188075    -0.62500
O60         O  0.56830705  0.37369255  0.74377660    -0.70900
O61         O  0.48927971  0.33624384  0.75263901    -0.70500
O62         O  0.48820034  0.20729985  0.75962267    -0.61700
O63         O  0.51715186  0.29647535  0.77814635    -0.74200
O64         O  0.46454451  0.25085704  0.73409767    -0.73000
Cu65       Cu  0.57205539  0.30952384  0.74756151     1.04600
Cu66       Cu  0.48709129  0.27134992  0.75648518     1.04300
C67         C  0.49737114  0.26171075  0.72334628     0.93300
C68         C  0.56547818  0.32321972  0.78035080     0.92400
C69         C  0.52695908  0.20324250  0.75655970     0.84600
C70         C  0.52775957  0.37500466  0.74686215     0.90800
O71         O  0.61606569  0.33623914  0.56560290    -0.72900
O72         O  0.55705524  0.32085352  0.60769233    -0.73900
O73         O  0.58776210  0.26355318  0.58964479    -0.62500
O74         O  0.58296034  0.39288677  0.58354852    -0.70900
O75         O  0.50385300  0.34654409  0.57489405    -0.70500
O76         O  0.51141171  0.22091934  0.57873905    -0.61700
O77         O  0.47888159  0.27231771  0.59858186    -0.74200
O78         O  0.53900570  0.29440252  0.55536167    -0.73000
Cu79       Cu  0.58868962  0.33013641  0.58693113     1.04600
Cu80       Cu  0.50558840  0.28222507  0.57652860     1.04300
C81         C  0.58756025  0.31716832  0.55381361     0.93300
C82         C  0.50927168  0.29289631  0.60998969     0.92400
C83         C  0.54992793  0.22180774  0.58484648     0.84600
C84         C  0.54165756  0.38956912  0.57864930     0.90800
O85         O  0.42385981  0.72716042  0.77338152    -0.72900
O86         O  0.47725734  0.77500205  0.73068958    -0.73900
O87         O  0.45136187  0.68600286  0.74813070    -0.62500
O88         O  0.45168147  0.81738844  0.75580052    -0.70900
O89         O  0.53214806  0.85267890  0.76346275    -0.70500
O90         O  0.52924877  0.72172443  0.75795151    -0.61700
O91         O  0.55666943  0.80695853  0.73898718    -0.74200
O92         O  0.50253325  0.76411422  0.78252513    -0.73000
Cu93       Cu  0.44819567  0.75021780  0.75174958     1.04600
Cu94       Cu  0.53280899  0.78776835  0.76110178     1.04300
C95         C  0.45435623  0.73696931  0.78469484     0.93300
C96         C  0.52498679  0.79711785  0.72797911     0.92400
C97         C  0.49075935  0.68351152  0.75192600     0.84600
C98         C  0.49321296  0.85635580  0.76019009     0.90800
O99         O  0.55233422  0.74593647  0.57958105    -0.72900
O100        O  0.55250755  0.87568950  0.58284435    -0.73900
O101        O  0.57260755  0.81705742  0.60363407    -0.62500
O102        O  0.52935243  0.80481627  0.55863792    -0.70900
O103        O  0.44884112  0.76446183  0.56613138    -0.70500
O104        O  0.49097647  0.77165238  0.61003843    -0.61700
O105        O  0.47201683  0.83529142  0.59049746    -0.74200
O106        O  0.47013151  0.70208485  0.58552612    -0.73000
Cu107      Cu  0.55446526  0.81216469  0.58087307     1.04600
Cu108      Cu  0.46762447  0.76680418  0.58826195     1.04300
C109        C  0.51181019  0.70365243  0.58209994     0.93300
C110        C  0.51349051  0.87675845  0.58760987     0.92400
C111        C  0.53786086  0.79602539  0.61390303     0.84600
C112        C  0.48177214  0.78355816  0.55537987     0.90800
O113        O  0.30379412  0.74341738  0.23502138    -0.72900
O114        O  0.29895610  0.78713053  0.27785956    -0.73900
O115        O  0.23486715  0.70077748  0.25983774    -0.62500
O116        O  0.36673014  0.83204685  0.25272731    -0.70900
O117        O  0.32200302  0.86780200  0.24537290    -0.70500
O118        O  0.19418881  0.73902424  0.25105817    -0.61700
O119        O  0.25359572  0.82209021  0.27057621    -0.74200
O120        O  0.26276041  0.78097004  0.22608203    -0.73000
Cu121      Cu  0.30272494  0.76474415  0.25662306     1.04600
Cu122      Cu  0.25680384  0.80392637  0.24795599     1.04300
C123        C  0.28368154  0.75389243  0.22375640     0.93300
C124        C  0.27495892  0.81014646  0.28125299     0.92400
C125        C  0.19339647  0.69966490  0.25637189     0.84600
C126        C  0.36456353  0.87098911  0.24821015     0.90800
O127        O  0.34478644  0.88997791  0.42405169    -0.72900
O128        O  0.22168099  0.75640472  0.43234217    -0.73900
O129        O  0.31219705  0.82148445  0.44953616    -0.62500
O130        O  0.25784876  0.82485452  0.40663346    -0.70900
O131        O  0.29625113  0.78447838  0.39771770    -0.70500
O132        O  0.35028244  0.78265798  0.43941198    -0.61700
O133        O  0.25898262  0.71591482  0.42275370    -0.74200
O134        O  0.38532697  0.85276593  0.41438130    -0.73000
Cu135      Cu  0.28271159  0.82438701  0.42854312     1.04600
Cu136      Cu  0.32402998  0.78250750  0.41830715     1.04300
C137        C  0.38388422  0.89309747  0.41764211     0.93300
C138        C  0.21973886  0.71503648  0.42849551     0.92400
C139        C  0.34082679  0.80196185  0.45108176     0.84600
C140        C  0.26960731  0.80545187  0.39538556     0.90800
O141        O  0.74357367  0.33593669  0.22813029    -0.72900
O142        O  0.74798032  0.29905358  0.27187078    -0.73900
O143        O  0.81156055  0.38239731  0.25296981    -0.62500
O144        O  0.68080535  0.25069739  0.24692351    -0.70900
O145        O  0.72587863  0.21395463  0.24105349    -0.70500
O146        O  0.85410877  0.34474817  0.24543689    -0.61700
O147        O  0.79486565  0.26455165  0.26593283    -0.74200
O148        O  0.78574459  0.29810859  0.22055331    -0.73000
Cu149      Cu  0.74438471  0.31815239  0.25015379     1.04600
Cu150      Cu  0.79148222  0.27877914  0.24293288     1.04300
C151        C  0.76424539  0.32415029  0.21737061     0.93300
C152        C  0.77303213  0.27776597  0.27606077     0.92400
C153        C  0.85366725  0.38399792  0.25026493     0.84600
C154        C  0.68322311  0.21115337  0.24347495     0.90800
O155        O  0.77267509  0.34782316  0.39478613    -0.72900
O156        O  0.73865278  0.35844518  0.43847825    -0.73900
O157        O  0.82689387  0.41623304  0.41943321    -0.62500
O158        O  0.68705012  0.28935671  0.41406535    -0.70900
O159        O  0.72107400  0.24344770  0.42184656    -0.70500
O160        O  0.85668506  0.36608842  0.42626892    -0.61700
O161        O  0.77073043  0.31107080  0.44623435    -0.74200
O162        O  0.80359788  0.29837360  0.40129103    -0.73000
Cu163      Cu  0.75544910  0.35487205  0.41643718     1.04600
Cu164      Cu  0.78939035  0.30337029  0.42415190     1.04300
C165        C  0.79198243  0.32076215  0.39086383     0.93300
C166        C  0.74726241  0.33522083  0.44926541     0.92400
C167        C  0.86422139  0.41054345  0.42362127     0.84600
C168        C  0.68262952  0.24634476  0.41752869     0.90800
C169        C  0.82789936  0.28270798  0.31604290    -0.27600
C170        C  0.78859742  0.27945629  0.32539729     0.02000
C171        C  0.74218948  0.26813440  0.31842492     0.30100
C172        C  0.73684392  0.26420516  0.30242019    -0.19400
C173        C  0.77706147  0.27086717  0.29289351    -0.28800
C174        C  0.82240517  0.27852394  0.29987570     0.44100
C175        C  0.79690352  0.29320345  0.34207433     0.05300
O176        O  0.70244370  0.26336176  0.32715387    -0.57300
H177        H  0.70149745  0.25789620  0.29737859     0.18300
O178        O  0.86266419  0.28525986  0.29102841    -0.64000
H179        H  0.86387548  0.29139462  0.32118177     0.16700
C180        C  0.80722928  0.26534087  0.35302487     0.29000
C181        C  0.80775946  0.27579902  0.36887704    -0.24900
C182        C  0.79841452  0.31426327  0.37406390    -0.24200
C183        C  0.79101601  0.34387140  0.36287834     0.40400
C184        C  0.79061134  0.33336161  0.34718918    -0.26700
O185        O  0.81362978  0.22582521  0.34844372    -0.58500
H186        H  0.81356772  0.25245377  0.37712282     0.16000
O187        O  0.78359517  0.38311624  0.36708679    -0.60000
H188        H  0.78369897  0.35593067  0.33891816     0.14500
H189        H  0.88257368  0.32231938  0.28886818     0.46300
H190        H  0.85101826  0.24060665  0.34761379     0.41700
H191        H  0.74626888  0.36909546  0.36640338     0.45200
H192        H  0.68415780  0.22743825  0.33066654     0.36700
C193        C  0.45958848  0.03451652  0.40965132    -0.27600
C194        C  0.50939162  0.04506401  0.41228729     0.02000
C195        C  0.51828986  0.00440075  0.41498656     0.30100
C196        C  0.47732354  0.95438034  0.41588556    -0.19400
C197        C  0.42721206  0.94429720  0.41425229    -0.28800
C198        C  0.41864951  0.98469116  0.41066488     0.44100
C199        C  0.55101613  0.09861483  0.41371607     0.05300
O200        O  0.56676377  0.01341387  0.41734250    -0.57300
H201        H  0.48460185  0.92383786  0.41859575     0.18300
O202        O  0.37026471  0.97582593  0.40816147    -0.64000
H203        H  0.45208175  0.06524120  0.40753853     0.16700
C204        C  0.56214514  0.13471850  0.40192889     0.29000
C205        C  0.60341862  0.18452934  0.40357027    -0.24900
C206        C  0.63346075  0.19857541  0.41691368    -0.24200
C207        C  0.62022862  0.16326893  0.42902634     0.40400
C208        C  0.57942235  0.11386216  0.42736737    -0.26700
O209        O  0.53513861  0.12072079  0.38840964    -0.58500
H210        H  0.61356828  0.21120203  0.39411831     0.16000
O211        O  0.64818864  0.17627813  0.44237872    -0.60000
H212        H  0.57029007  0.08704116  0.43673213     0.14500
H213        H  0.36071092  0.98654797  0.41776771     0.46300
H214        H  0.51244853  0.13531827  0.38892474     0.41700
H215        H  0.63484016  0.19408316  0.44871101     0.45200
H216        H  0.58067233  0.01518658  0.40690099     0.36700
C217        C  0.00766926  0.48965040  0.43009644    -0.27600
C218        C  0.01674517  0.53938118  0.42878182     0.02000
C219        C  0.97546670  0.54698701  0.42574837     0.30100
C220        C  0.92601261  0.50498101  0.42407020    -0.19400
C221        C  0.91677775  0.45494130  0.42542548    -0.28800
C222        C  0.95862630  0.44779308  0.42840326     0.44100
C223        C  0.06993352  0.58258856  0.42979933     0.05300
O224        O  0.98355002  0.59520682  0.42359257    -0.57300
H225        H  0.89495058  0.51170005  0.42161013     0.18300
O226        O  0.95241860  0.40002655  0.42962868    -0.64000
H227        H  0.03902271  0.48316833  0.43235312     0.16700
C228        C  0.08404598  0.62226600  0.44047090     0.29000
C229        C  0.13369337  0.66409722  0.44041180    -0.24900
C230        C  0.17045186  0.66674574  0.43001942    -0.24200
C231        C  0.15711282  0.62537885  0.42003847     0.40400
C232        C  0.10719487  0.58395245  0.41994127    -0.26700
O233        O  0.04951134  0.62080470  0.45089953    -0.58500
H234        H  0.14320206  0.69506637  0.44835528     0.16000
O235        O  0.19136467  0.62658629  0.40955115    -0.60000
H236        H  0.09710144  0.55342691  0.41177196     0.14500
H237        H  0.95822373  0.39140370  0.41909835     0.46300
H238        H  0.05138237  0.60136343  0.45980547     0.41700
H239        H  0.20718616  0.60874872  0.41464514     0.45200
H240        H  0.96851103  0.60216851  0.43272653     0.36700
C241        C  0.45527081  0.01279832  0.24799527    -0.27600
C242        C  0.49998209  0.01567739  0.24252852     0.02000
C243        C  0.49985385  0.97049503  0.23880215     0.30100
C244        C  0.45574397  0.92331292  0.24093676    -0.19400
C245        C  0.41111190  0.92060478  0.24637917    -0.28800
C246        C  0.41098434  0.96582814  0.24983486     0.44100
C247        C  0.54730711  0.06566747  0.24190850     0.05300
O248        O  0.54266455  0.97207429  0.23309847    -0.57300
H249        H  0.45615513  0.88886028  0.23807960     0.18300
O250        O  0.36811412  0.96454185  0.25538885    -0.64000
H251        H  0.45500149  0.04700197  0.25127690     0.16700
C252        C  0.54876659  0.10803915  0.23475045     0.29000
C253        C  0.59337329  0.15564034  0.23531892    -0.24900
C254        C  0.63674256  0.16126257  0.24279673    -0.24200
C255        C  0.63537789  0.11889945  0.24983418     0.40400
C256        C  0.59082657  0.07165803  0.24942620    -0.26700
O257        O  0.50741172  0.10280571  0.22676219    -0.58500
H258        H  0.59430501  0.18800892  0.22975382     0.16000
O259        O  0.67700953  0.12358043  0.25750929    -0.60000
H260        H  0.58993612  0.03980431  0.25532466     0.14500
H261        H  0.36924422  0.96063571  0.26668552     0.46300
H262        H  0.49394973  0.12071500  0.23299660     0.41700
H263        H  0.67447622  0.13432812  0.26809461     0.45200
H264        H  0.54146656  0.97663707  0.22183225     0.36700
C265        C  0.95397914  0.51560713  0.26343893    -0.27600
C266        C  0.99818354  0.51754640  0.25790092     0.02000
C267        C  0.99480689  0.47591412  0.24992328     0.30100
C268        C  0.94743198  0.43285242  0.24753570    -0.19400
C269        C  0.90275152  0.43076358  0.25287315    -0.28800
C270        C  0.90634802  0.47256966  0.26097965     0.44100
C271        C  0.04713518  0.56501040  0.25898572     0.05300
O272        O  0.03747316  0.47754872  0.24403980    -0.57300
H273        H  0.94579422  0.40131123  0.24125793     0.18300
O274        O  0.86380830  0.47211874  0.26642285    -0.64000
H275        H  0.95644828  0.54788073  0.26950479     0.16700
C276        C  0.05335429  0.60871106  0.25157251     0.29000
C277        C  0.10112423  0.65217172  0.25109394    -0.24900
C278        C  0.14345999  0.65310187  0.25800567    -0.24200
C279        C  0.13679932  0.60969697  0.26592611     0.40400
C280        C  0.08870962  0.56577350  0.26628187    -0.26700
O281        O  0.01364659  0.60813995  0.24385038    -0.58500
H282        H  0.10501495  0.68484929  0.24487636     0.16000
O283        O  0.17684801  0.60937134  0.27308961    -0.60000
H284        H  0.08391932  0.53200977  0.27204198     0.14500
H285        H  0.85919941  0.45859436  0.27705564     0.46300
H286        H  0.00139115  0.62563814  0.25075716     0.41700
H287        H  0.17739691  0.62182068  0.28367277     0.45200
H288        H  0.04245783  0.49353179  0.23373491     0.36700
C289        C  0.26384832  0.85874272  0.35641967    -0.27600
C290        C  0.24916569  0.81611492  0.34696994     0.02000
C291        C  0.23419134  0.76872473  0.35386097     0.30100
C292        C  0.23744472  0.76507191  0.36985328    -0.19400
C293        C  0.25477731  0.80814125  0.37930029    -0.28800
C294        C  0.26656781  0.85496426  0.37251282     0.44100
C295        C  0.25733661  0.82219890  0.33005910     0.05300
O296        O  0.21993172  0.72646535  0.34494238    -0.57300
H297        H  0.22867967  0.72886589  0.37484278     0.18300
O298        O  0.28470482  0.89800926  0.38134127    -0.64000
H299        H  0.27605616  0.89556160  0.35125317     0.16700
C300        C  0.21945574  0.81789217  0.31979280     0.29000
C301        C  0.22669591  0.81758486  0.30376494    -0.24900
C302        C  0.27121633  0.82060497  0.29782163    -0.24200
C303        C  0.30993317  0.82735598  0.30823003     0.40400
C304        C  0.30271812  0.82795230  0.32411331    -0.26700
O305        O  0.17472158  0.81238642  0.32530940    -0.58500
H306        H  0.19634873  0.81214323  0.29604270     0.16000
O307        O  0.35452725  0.83167894  0.30302825    -0.60000
H308        H  0.33218026  0.83131643  0.33188739     0.14500
H309        H  0.32214769  0.91275383  0.38161935     0.46300
H310        H  0.15208532  0.77526097  0.32683384     0.41700
H311        H  0.37697618  0.86834742  0.30071589     0.45200
H312        H  0.18314697  0.71239130  0.34289187     0.36700
C313        C  0.39502226  0.75715369  0.52061410    -0.27600
C314        C  0.42900475  0.79078104  0.50960408     0.02000
C315        C  0.48129836  0.81899181  0.51325366     0.30100
C316        C  0.49840165  0.81495080  0.52797783    -0.19400
C317        C  0.46406030  0.78267029  0.53925660    -0.28800
C318        C  0.41196099  0.75271332  0.53523901     0.44100
C319        C  0.40871994  0.79638525  0.49454033     0.05300
O320        O  0.51547171  0.85294249  0.50284443    -0.57300
H321        H  0.53846237  0.83850430  0.53070927     0.18300
O322        O  0.37707628  0.71855522  0.54546412    -0.64000
H323        H  0.35485324  0.73437710  0.51788558     0.16700
C324        C  0.42313609  0.78371320  0.48062347     0.29000
C325        C  0.40086970  0.78607563  0.46671079    -0.24900
C326        C  0.36409925  0.80136533  0.46623456    -0.24200
C327        C  0.35026974  0.81476516  0.48022236     0.40400
C328        C  0.37236338  0.81202116  0.49416949    -0.26700
O329        O  0.45679171  0.76615264  0.48061231    -0.58500
H330        H  0.41236995  0.77537550  0.45623300     0.16000
O331        O  0.31500067  0.83021541  0.48048204    -0.60000
H332        H  0.36077236  0.82183919  0.50480096     0.14500
H333        H  0.35931737  0.73561901  0.54974307     0.46300
H334        H  0.48794106  0.79314117  0.47551134     0.41700
H335        H  0.28190890  0.79880575  0.48239619     0.45200
H336        H  0.53708557  0.83859466  0.49975223     0.36700
C337        C  0.53160190  0.76330381  0.65619115    -0.27600
C338        C  0.56188911  0.81146397  0.66279932     0.02000
C339        C  0.58864643  0.85406441  0.65311939     0.30100
C340        C  0.58358958  0.84823984  0.63703327    -0.19400
C341        C  0.55073561  0.80038910  0.63048255    -0.28800
C342        C  0.52536240  0.75767050  0.64020350     0.44100
C343        C  0.56061339  0.81659639  0.67975529     0.05300
O344        O  0.61924648  0.90145909  0.65929450    -0.57300
H345        H  0.60309930  0.88154362  0.62972948     0.18300
O346        O  0.49418833  0.71018744  0.63414509    -0.64000
H347        H  0.51081956  0.73021406  0.66350857     0.16700
C348        C  0.53118588  0.83561450  0.68630209     0.29000
C349        C  0.52203687  0.83152420  0.70219856    -0.24900
C350        C  0.54256359  0.80926264  0.71183424    -0.24200
C351        C  0.57442092  0.79289196  0.70541016     0.40400
C352        C  0.58263438  0.79593436  0.68943618    -0.26700
O353        O  0.50901898  0.85586422  0.67714451    -0.58500
H354        H  0.49739334  0.84422156  0.70695574     0.16000
O355        O  0.59386178  0.76966872  0.71443116    -0.60000
H356        H  0.60466753  0.78042217  0.68451997     0.14500
H357        H  0.45907313  0.70397430  0.63539452     0.46300
H358        H  0.47570919  0.82653246  0.67404122     0.41700
H359        H  0.62825932  0.79725915  0.71747888     0.45200
H360        H  0.59833364  0.91807872  0.65920021     0.36700
C361        C  0.52115302  0.08895294  0.57618907    -0.27600
C362        C  0.53373071  0.07492582  0.59013866     0.02000
C363        C  0.55578795  0.11099054  0.60206187     0.30100
C364        C  0.56363237  0.16016107  0.60003648    -0.19400
C365        C  0.54921533  0.17339574  0.58623296    -0.28800
C366        C  0.52885458  0.13774150  0.57416503     0.44100
C367        C  0.52669046  0.02349195  0.59151650     0.05300
O368        O  0.56891411  0.09821159  0.61576604    -0.57300
H369        H  0.57902581  0.18719421  0.60943017     0.18300
O370        O  0.51604005  0.15019507  0.56034109    -0.64000
H371        H  0.50570103  0.06202621  0.56676756     0.16700
C372        C  0.47849683  0.97972778  0.58948111     0.29000
C373        C  0.47404291  0.93161420  0.58882416    -0.24900
C374        C  0.51752223  0.92681030  0.58978094    -0.24200
C375        C  0.56552121  0.97080251  0.59228919     0.40400
C376        C  0.56963507  0.01848367  0.59326132    -0.26700
O377        O  0.43569535  0.98377631  0.58817300    -0.58500
H378        H  0.43686283  0.89834227  0.58701414     0.16000
O379        O  0.60874827  0.96766189  0.59394384    -0.60000
H380        H  0.60689966  0.05196211  0.59476409     0.14500
H381        H  0.54834121  0.16812004  0.55445903     0.46300
H382        H  0.42753293  0.98016397  0.57701919     0.41700
H383        H  0.62611520  0.97786931  0.58381542     0.45200
H384        H  0.53852886  0.08618920  0.62243646     0.36700
C385        C  0.48537439  0.47585924  0.57975502    -0.27600
C386        C  0.52822086  0.52357334  0.57677963     0.02000
C387        C  0.57537560  0.52679846  0.57382517     0.30100
C388        C  0.57946461  0.48298115  0.57444118    -0.19400
C389        C  0.53667729  0.43535111  0.57762904    -0.28800
C390        C  0.48922468  0.43201371  0.58015242     0.44100
C391        C  0.52380070  0.56984567  0.57780434     0.05300
O392        O  0.61772355  0.57263120  0.57039349    -0.57300
H393        H  0.61608197  0.48619597  0.57231614     0.18300
O394        O  0.44660414  0.38632575  0.58354696    -0.64000
H395        H  0.44901070  0.47273479  0.58227527     0.16700
C396        C  0.48541833  0.57365822  0.56979625     0.29000
C397        C  0.48045055  0.61668166  0.57168742    -0.24900
C398        C  0.51425865  0.65674250  0.58119312    -0.24200
C399        C  0.55258356  0.65303823  0.58917343     0.40400
C400        C  0.55695503  0.60974786  0.58751938    -0.26700
O401        O  0.45313860  0.53595495  0.55991952    -0.58500
H402        H  0.45123637  0.61949738  0.56535211     0.16000
O403        O  0.58573406  0.69144113  0.59872385    -0.60000
H404        H  0.58596911  0.60705492  0.59401068     0.14500
H405        H  0.44709278  0.38294247  0.59489403     0.46300
H406        H  0.47173939  0.54379990  0.55000231     0.41700
H407        H  0.56767721  0.68471169  0.60875279     0.45200
H408        H  0.61645079  0.57640894  0.55908677     0.36700
C409        C  0.68557589  0.34112502  0.52246548    -0.27600
C410        C  0.65539833  0.32474859  0.50915081     0.02000
C411        C  0.60250225  0.30536886  0.51058690     0.30100
C412        C  0.58096877  0.30336762  0.52509835    -0.19400
C413        C  0.61131540  0.32056816  0.53843771    -0.28800
C414        C  0.66421975  0.33904587  0.53693746     0.44100
C415        C  0.67987874  0.32832466  0.49391586     0.05300
O416        O  0.57123456  0.28596263  0.49798383    -0.57300
H417        H  0.54023467  0.28796055  0.52587996     0.18300
O418        O  0.69577351  0.35516454  0.54952583    -0.64000
H419        H  0.72622634  0.35596927  0.52163852     0.16700
C420        C  0.67364040  0.35435679  0.48145320     0.29000
C421        C  0.69667938  0.35708588  0.46724461    -0.24900
C422        C  0.72719891  0.33484446  0.46503817    -0.24200
C423        C  0.73506662  0.31046196  0.47772273     0.40400
C424        C  0.71146307  0.30728511  0.49193877    -0.26700
O425        O  0.64545160  0.37783029  0.48304164    -0.58500
H426        H  0.69007485  0.37651492  0.45785071     0.16000
O427        O  0.76493232  0.28876311  0.47635449    -0.60000
H428        H  0.71743681  0.28775801  0.50144061     0.14500
H429        H  0.69694287  0.32477760  0.55309479     0.46300
H430        H  0.66912225  0.41161763  0.48756243     0.41700
H431        H  0.79986388  0.31627901  0.47897487     0.45200
H432        H  0.55705916  0.30866615  0.49625010     0.36700
C433        C  0.47138232  0.06023054  0.75623973    -0.27600
C434        C  0.51304877  0.05564044  0.76090353     0.02000
C435        C  0.55971318  0.10020878  0.76423301     0.30100
C436        C  0.56427355  0.14823531  0.76263512    -0.19400
C437        C  0.52241150  0.15264567  0.75805296    -0.28800
C438        C  0.47569246  0.10801479  0.75482563     0.44100
C439        C  0.50806241  0.00444666  0.76136895     0.05300
O440        O  0.60107018  0.09725644  0.76910742    -0.57300
H441        H  0.60035137  0.18202959  0.76521719     0.18300
O442        O  0.43420315  0.11063369  0.74986337    -0.64000
H443        H  0.43557775  0.02663037  0.75328873     0.16700
C444        C  0.46713176  0.96302296  0.76902439     0.29000
C445        C  0.46192285  0.91451222  0.76846859    -0.24900
C446        C  0.49786697  0.90692993  0.76066374    -0.24200
C447        C  0.53869838  0.94820542  0.75305736     0.40400
C448        C  0.54344709  0.99632490  0.75339934    -0.26700
O449        O  0.43222716  0.96960049  0.77714728    -0.58500
H450        H  0.43035734  0.88302546  0.77436278     0.16000
O451        O  0.57352873  0.94156725  0.74489659    -0.60000
H452        H  0.57437208  0.02721910  0.74712233     0.14500
H453        H  0.43821187  0.11495307  0.73854269     0.46300
H454        H  0.44723255  0.98063333  0.78755190     0.41700
H455        H  0.55818215  0.92993533  0.73454068     0.45200
H456        H  0.59616831  0.09094683  0.78034859     0.36700
C457        C  0.47413669  0.56080282  0.73501016    -0.27600
C458        C  0.50598747  0.55214958  0.74475876     0.02000
C459        C  0.53074336  0.58570601  0.75707071     0.30100
C460        C  0.52465433  0.62767987  0.75927161    -0.19400
C461        C  0.49319666  0.63675990  0.74952618    -0.28800
C462        C  0.46753500  0.60275245  0.73734158     0.44100
C463        C  0.51157665  0.50687668  0.74269702     0.05300
O464        O  0.56051335  0.57742185  0.76718896    -0.57300
H465        H  0.54442505  0.65309552  0.76878882     0.18300
O466        O  0.43690930  0.61065383  0.72748147    -0.64000
H467        H  0.45476024  0.53526777  0.72549210     0.16700
C468        C  0.46862029  0.45775666  0.74297116     0.29000
C469        C  0.47486911  0.41538183  0.74362622    -0.24900
C470        C  0.52368990  0.42084085  0.74398684    -0.24200
C471        C  0.56667468  0.46991065  0.74266014     0.40400
C472        C  0.56037953  0.51247896  0.74206252    -0.26700
O473        O  0.42050110  0.45087630  0.74391638    -0.58500
H474        H  0.44108114  0.37803599  0.74439539     0.16000
O475        O  0.61493152  0.47705607  0.74302807    -0.60000
H476        H  0.59381852  0.55016339  0.74169396     0.14500
H477        H  0.45986299  0.63265979  0.71918311     0.46300
H478        H  0.40591483  0.44045464  0.73343653     0.41700
H479        H  0.62527074  0.47976904  0.73208272     0.45200
H480        H  0.53666172  0.55423885  0.77514310     0.36700
C481        C  0.50467121  0.23931681  0.68081591    -0.27600
C482        C  0.46928324  0.25121803  0.67468286     0.02000
C483        C  0.43778397  0.25923579  0.68476595     0.30100
C484        C  0.44383475  0.25791800  0.70080330    -0.19400
C485        C  0.48208942  0.24993155  0.70693161    -0.28800
C486        C  0.51123399  0.23863079  0.69675376     0.44100
C487        C  0.47200287  0.26316048  0.65801854     0.05300
O488        O  0.40278015  0.27083316  0.67905352    -0.57300
H489        H  0.42121424  0.26690976  0.70838924     0.18300
O490        O  0.54827999  0.22959395  0.70224458    -0.64000
H491        H  0.52933083  0.23332773  0.67318023     0.16700
C492        C  0.50764339  0.31230215  0.65285358     0.29000
C493        C  0.51682738  0.32217686  0.63709211    -0.24900
C494        C  0.49076189  0.28356000  0.62614965    -0.24200
C495        C  0.45278087  0.23498518  0.63127236     0.40400
C496        C  0.44401492  0.22491667  0.64714992    -0.26700
O497        O  0.53516079  0.35053640  0.66321007    -0.58500
H498        H  0.54599725  0.35980912  0.63343282     0.16000
O499        O  0.42727164  0.19600452  0.62099031    -0.60000
H500        H  0.41686645  0.18676970  0.65099322     0.14500
H501        H  0.53062750  0.19244474  0.70424400     0.46300
H502        H  0.56631461  0.34873996  0.66529151     0.41700
H503        H  0.39570161  0.19647396  0.61847173     0.45200
H504        H  0.42115747  0.30850246  0.67829548     0.36700
C505        C  0.34071491  0.66409841  0.85282076    -0.27600
C506        C  0.36453507  0.64367463  0.84386229     0.02000
C507        C  0.36576859  0.60070361  0.84949518     0.30100
C508        C  0.34405388  0.57944019  0.86387927    -0.19400
C509        C  0.32151490  0.60089962  0.87297987    -0.28800
C510        C  0.31956482  0.64326127  0.86721239     0.44100
C511        C  0.38781874  0.66770541  0.82873273     0.05300
O512        O  0.38869113  0.57958642  0.84113383    -0.57300
H513        H  0.34662626  0.54736919  0.86819081     0.18300
O514        O  0.29765307  0.66515769  0.87569757    -0.64000
H515        H  0.33941831  0.69713843  0.84877603     0.16700
C516        C  0.35903833  0.67511586  0.81736116     0.29000
C517        C  0.38147373  0.69851184  0.80332524    -0.24900
C518        C  0.43296668  0.71525152  0.80019158    -0.24200
C519        C  0.46185046  0.70783669  0.81159268     0.40400
C520        C  0.43930649  0.68439907  0.82567934    -0.26700
O521        O  0.30857712  0.65904417  0.81976709    -0.58500
H522        H  0.35818027  0.70330470  0.79479858     0.16000
O523        O  0.51190057  0.72249935  0.80904079    -0.60000
H524        H  0.46225482  0.67942800  0.83429032     0.14500
H525        H  0.26160305  0.64783761  0.87231851     0.46300
H526        H  0.29003646  0.62259140  0.81681984     0.41700
H527        H  0.51117677  0.69241907  0.80435622     0.45200
H528        H  0.36197531  0.55526702  0.83402271     0.36700
C529        C  0.31992945  0.69410208  0.15303219    -0.27600
C530        C  0.28584956  0.66372271  0.16455837     0.02000
C531        C  0.25408063  0.61117728  0.16172834     0.30100
C532        C  0.25625257  0.59008381  0.14751153    -0.19400
C533        C  0.29013167  0.62052903  0.13586418    -0.28800
C534        C  0.32262432  0.67309508  0.13892031     0.44100
C535        C  0.28487483  0.68709389  0.17960981     0.05300
O536        O  0.21894401  0.58063034  0.17251713    -0.57300
H537        H  0.23036123  0.54993794  0.14548950     0.18300
O538        O  0.35702013  0.70474050  0.12815103    -0.64000
H539        H  0.34507506  0.73441484  0.15504789     0.16700
C540        C  0.29634843  0.67076052  0.19341281     0.29000
C541        C  0.29570175  0.69298768  0.20745835    -0.24900
C542        C  0.28407312  0.73234469  0.20826923    -0.24200
C543        C  0.27311007  0.74921777  0.19439621     0.40400
C544        C  0.27405931  0.72697700  0.18023475    -0.26700
O545        O  0.30905459  0.63342987  0.19330749    -0.58500
H546        H  0.30436276  0.67897895  0.21782674     0.16000
O547        O  0.26283161  0.78822493  0.19444830    -0.60000
H548        H  0.26588899  0.74063863  0.16970230     0.14500
H549        H  0.38828177  0.70305000  0.13007600     0.46300
H550        H  0.34622441  0.65143345  0.19130176     0.41700
H551        H  0.22515369  0.77142266  0.19433616     0.45200
H552        H  0.23142308  0.55834678  0.17654040     0.36700
C553        C  0.21201347  0.47892623  0.02353688    -0.27600
C554        C  0.25548926  0.50293961  0.01414594     0.02000
C555        C  0.30372539  0.53042496  0.02109750     0.30100
C556        C  0.30794558  0.53608867  0.03712413    -0.19400
C557        C  0.26449987  0.51389814  0.04655168    -0.28800
C558        C  0.21630433  0.48390273  0.03967077     0.44100
C559        C  0.25061263  0.50554721  0.99719677     0.05300
O560        O  0.34679776  0.55468355  0.01222382    -0.57300
H561        H  0.34528747  0.55956638  0.04218617     0.18300
O562        O  0.17297131  0.46347773  0.04844692    -0.64000
H563        H  0.17459449  0.45832053  0.01831516     0.16700
C564        C  0.24996594  0.46883736  0.98719327     0.29000
C565        C  0.25159476  0.47613381  0.97113376    -0.24900
C566        C  0.25439656  0.52020216  0.96486308    -0.24200
C567        C  0.25296819  0.55577504  0.97500085     0.40400
C568        C  0.25091244  0.54814399  0.99094849    -0.26700
O569        O  0.25030827  0.42708180  0.99300039    -0.58500
H570        H  0.25292934  0.44843675  0.96362314     0.16000
O571        O  0.25328683  0.59817429  0.96943109    -0.60000
H572        H  0.25109383  0.57651319  0.99852424     0.14500
H573        H  0.16520931  0.42843665  0.05091439     0.46300
H574        H  0.21413956  0.40205780  0.99528154     0.41700
H575        H  0.28871416  0.62657253  0.97086964     0.45200
H576        H  0.35880418  0.52996748  0.01118932     0.36700
C577        C  0.95775170  0.49028944  0.90817476    -0.27600
C578        C  0.99961474  0.53857480  0.91157936     0.02000
C579        C  0.99153316  0.57989965  0.91353697     0.30100
C580        C  0.94249218  0.57255107  0.91222159    -0.19400
C581        C  0.90037794  0.52399660  0.90934773    -0.28800
C582        C  0.90839557  0.48271257  0.90720207     0.44100
C583        C  0.05124652  0.54523424  0.91331182     0.05300
O584        O  0.03103525  0.62739966  0.91718722    -0.57300
H585        H  0.93721879  0.60482892  0.91405006     0.18300
O586        O  0.86842783  0.43490145  0.90416743    -0.64000
H587        H  0.96329460  0.45823104  0.90627799     0.16700
C588        C  0.05916679  0.51205187  0.92271614     0.29000
C589        C  0.10757537  0.51756867  0.92372771    -0.24900
C590        C  0.14887739  0.55650575  0.91572799    -0.24200
C591        C  0.14169831  0.59086979  0.90677642     0.40400
C592        C  0.09299959  0.58483062  0.90549221    -0.26700
O593        O  0.02022484  0.47535037  0.93139610    -0.58500
H594        H  0.11294671  0.49135027  0.93085300     0.16000
O595        O  0.18156286  0.62929575  0.89885642    -0.60000
H596        H  0.08767290  0.61052437  0.89811715     0.14500
H597        H  0.86606892  0.43255386  0.89278137     0.46300
H598        H  0.01187964  0.44242772  0.92662689     0.41700
H599        H  0.18044334  0.61504126  0.88851205     0.45200
H600        H  0.03413198  0.62736807  0.92855985     0.36700
C601        C  0.50448497  0.58277672  0.92244631    -0.27600
C602        C  0.49824061  0.53381658  0.92288837     0.02000
C603        C  0.44905815  0.49114509  0.92370685     0.30100
C604        C  0.40684009  0.49767390  0.92359135    -0.19400
C605        C  0.41274275  0.54656415  0.92256215    -0.28800
C606        C  0.46219476  0.58941129  0.92229565     0.44100
C607        C  0.54290204  0.52739920  0.92120092     0.05300
O608        O  0.44179605  0.44282715  0.92406452    -0.57300
H609        H  0.36925328  0.46409543  0.92397591     0.18300
O610        O  0.46970708  0.63765642  0.92101700    -0.64000
H611        H  0.54232457  0.61593326  0.92185478     0.16700
C612        C  0.57399564  0.54664036  0.90810199     0.29000
C613        C  0.61569219  0.53981079  0.90640010    -0.24900
C614        C  0.62712083  0.51386556  0.91762371    -0.24200
C615        C  0.59594154  0.49426781  0.93071587     0.40400
C616        C  0.55384938  0.50091570  0.93240599    -0.26700
O617        O  0.56274092  0.57051973  0.89663706    -0.58500
H618        H  0.63931616  0.55498386  0.89623403     0.16000
O619        O  0.60717914  0.47016622  0.94209952    -0.60000
H620        H  0.53016816  0.48611524  0.94256629     0.14500
H621        H  0.47508090  0.65079172  0.93170732     0.46300
H622        H  0.58745439  0.60733984  0.89794663     0.41700
H623        H  0.62985795  0.49752342  0.94932638     0.45200
H624        H  0.44087621  0.43314201  0.91311328     0.36700
C625        C  0.65521224  0.38201055  0.85176906    -0.27600
C626        C  0.66078314  0.41402758  0.83940120     0.02000
C627        C  0.69094211  0.46716941  0.84151498     0.30100
C628        C  0.71425431  0.48730042  0.85585659    -0.19400
C629        C  0.70861193  0.45522272  0.86833359    -0.28800
C630        C  0.67865398  0.40185946  0.86602563     0.44100
C631        C  0.63582479  0.39117298  0.82431793     0.05300
O632        O  0.69587289  0.49976573  0.82983385    -0.57300
H633        H  0.73619310  0.52823485  0.85724435     0.18300
O634        O  0.67208221  0.36831117  0.87758271    -0.64000
H635        H  0.63271786  0.34109794  0.85033724     0.16700
C636        C  0.66503708  0.40021767  0.81090189     0.29000
C637        C  0.64143429  0.37776539  0.79690850    -0.24900
C638        C  0.58823915  0.34513880  0.79578906    -0.24200
C639        C  0.55895257  0.33530562  0.80932614     0.40400
C640        C  0.58275757  0.35813399  0.82339078    -0.26700
O641        O  0.71703810  0.43033933  0.81136381    -0.58500
H642        H  0.66536870  0.38608316  0.78684754     0.16000
O643        O  0.50712386  0.30390543  0.80899067    -0.60000
H644        H  0.55961893  0.35016041  0.83362795     0.14500
H645        H  0.63886409  0.35902398  0.88233894     0.46300
H646        H  0.72968103  0.40724606  0.81444407     0.41700
H647        H  0.50135457  0.26942312  0.81126413     0.45200
H648        H  0.73174401  0.51547147  0.82635324     0.36700
C649        C  0.74664789  0.37799503  0.14396836    -0.27600
C650        C  0.76465105  0.40930676  0.15697856     0.02000
C651        C  0.77991649  0.46127284  0.15537918     0.30100
C652        C  0.77627399  0.48085117  0.14100647    -0.19400
C653        C  0.75693831  0.44923059  0.12798751    -0.28800
C654        C  0.74273339  0.39725430  0.12965328     0.44100
C655        C  0.76462367  0.38661914  0.17227322     0.05300
O656        O  0.79997958  0.49352820  0.16772338    -0.57300
H657        H  0.78850750  0.52091877  0.14009792     0.18300
O658        O  0.72465180  0.36445564  0.11739080    -0.64000
H659        H  0.73467272  0.33798407  0.14496251     0.16700
C660        C  0.73455435  0.38762262  0.18439457     0.29000
C661        C  0.73429588  0.36621803  0.19869656    -0.24900
C662        C  0.76346766  0.34275247  0.20142130    -0.24200
C663        C  0.79274215  0.34055755  0.18912830     0.40400
C664        C  0.79279036  0.36198398  0.17468934    -0.26700
O665        O  0.70469076  0.40911587  0.18235269    -0.58500
H666        H  0.71095664  0.36829607  0.20775060     0.16000
O667        O  0.82174391  0.31808788  0.19106700    -0.60000
H668        H  0.81556051  0.36009307  0.16541433     0.14500
H669        H  0.75506306  0.36548146  0.11284668     0.46300
H670        H  0.67241222  0.38173257  0.17788003     0.41700
H671        H  0.85579732  0.34605197  0.19424655     0.45200
H672        H  0.77381415  0.50227283  0.17067118     0.36700
C673        C  0.95345041  0.48747262  0.07736237    -0.27600
C674        C  0.99499590  0.53759795  0.07830183     0.02000
C675        C  0.98572463  0.57839161  0.07787620     0.30100
C676        C  0.93584907  0.56884771  0.07725802    -0.19400
C677        C  0.89401064  0.51879116  0.07744215    -0.28800
C678        C  0.90319636  0.47785311  0.07701510     0.44100
C679        C  0.04724202  0.54694100  0.08105655     0.05300
O680        O  0.02495734  0.62779026  0.07890258    -0.57300
H681        H  0.93000145  0.60116330  0.07733544     0.18300
O682        O  0.86367870  0.42851167  0.07734654    -0.64000
H683        H  0.95994018  0.45557972  0.07742712     0.16700
C684        C  0.05649007  0.52214953  0.09323703     0.29000
C685        C  0.10558751  0.53106047  0.09583248    -0.24900
C686        C  0.14656502  0.56464493  0.08646685    -0.24200
C687        C  0.13794883  0.59124121  0.07467190     0.40400
C688        C  0.08846502  0.58211852  0.07199676    -0.26700
O689        O  0.01802369  0.49044041  0.10302591    -0.58500
H690        H  0.11143627  0.51090979  0.10518131     0.16000
O691        O  0.17708498  0.62502727  0.06545713    -0.60000
H692        H  0.08212968  0.60188629  0.06264479     0.14500
H693        H  0.85719520  0.41772041  0.06641508     0.46300
H694        H  0.01039790  0.45555016  0.10042464     0.41700
H695        H  0.17653619  0.60493564  0.05640484     0.45200
H696        H  0.03010697  0.63517983  0.09009559     0.36700
C697        C  0.58084930  0.56064484  0.08648113    -0.27600
C698        C  0.53489668  0.52161345  0.09255602     0.02000
C699        C  0.53206758  0.47527528  0.09685566     0.30100
C700        C  0.57464941  0.46906661  0.09513506    -0.19400
C701        C  0.62094155  0.50911328  0.08961989    -0.28800
C702        C  0.62354203  0.55505942  0.08521511     0.44100
C703        C  0.49029715  0.52959536  0.09384235     0.05300
O704        O  0.48826974  0.43609456  0.10301136    -0.57300
H705        H  0.57195395  0.43355483  0.09859146     0.18300
O706        O  0.66776891  0.59493281  0.07948586    -0.64000
H707        H  0.58375340  0.59573980  0.08248801     0.16700
C708        C  0.49574427  0.57586302  0.09939471     0.29000
C709        C  0.45385523  0.58354006  0.09951149    -0.24900
C710        C  0.40585995  0.54528185  0.09450047    -0.24200
C711        C  0.40016218  0.49881816  0.08922138     0.40400
C712        C  0.44208281  0.49155831  0.08876634    -0.26700
O713        O  0.54135258  0.61298604  0.10531681    -0.58500
H714        H  0.45875164  0.61918705  0.10378287     0.16000
O715        O  0.35390219  0.46051357  0.08408598    -0.60000
H716        H  0.43693240  0.45632433  0.08405831     0.14500
H717        H  0.66699043  0.58820541  0.06826122     0.46300
H718        H  0.55357285  0.64225821  0.09814276     0.41700
H719        H  0.35249208  0.46805428  0.07303858     0.45200
H720        H  0.49001652  0.44382551  0.11415219     0.36700
C721        C  0.80673248  0.60458442  0.01700717    -0.27600
C722        C  0.77274039  0.56715462  0.00673867     0.02000
C723        C  0.73006008  0.52353856  0.01269946     0.30100
C724        C  0.72372431  0.51598777  0.02863394    -0.19400
C725        C  0.75931540  0.55169966  0.03904264    -0.28800
C726        C  0.80003514  0.59734516  0.03306569     0.44100
C727        C  0.78432463  0.57010072  0.98999470     0.05300
O728        O  0.69572401  0.48658742  0.00299405    -0.57300
H729        H  0.69166801  0.48090966  0.03284809     0.18300
O730        O  0.83573730  0.63324082  0.04271349    -0.64000
H731        H  0.83977355  0.63838434  0.01257573     0.16700
C732        C  0.77200995  0.59801057  0.97964958     0.29000
C733        C  0.77610154  0.59325419  0.96364829    -0.24900
C734        C  0.79213928  0.56052094  0.95778799    -0.24200
C735        C  0.80748684  0.53526276  0.96824616     0.40400
C736        C  0.80335975  0.54002415  0.98414319    -0.26700
O737        O  0.75241490  0.62697237  0.98500373    -0.58500
H738        H  0.76343919  0.61243046  0.95583287     0.16000
O739        O  0.82434828  0.50379858  0.96302077    -0.60000
H740        H  0.81317427  0.51847761  0.99195812     0.14500
H741        H  0.82381907  0.65760109  0.04466018     0.43900
H742        H  0.78248355  0.66098064  0.98703219     0.41700
H743        H  0.86146450  0.52631676  0.96139480     0.45200
H744        H  0.67069520  0.49730146  0.00042893     0.36700
loop_ 
_geom_bond_atom_site_label_1 
_geom_bond_atom_site_label_2 
_geom_bond_distance 
_geom_bond_site_symmetry_2 
_ccdc_geom_bond_type 
O1           Cu9   1.977       .  S
O1           C11   1.273       .  A
O2           Cu9   1.958       .  S
O2           C12   1.271       .  A
O3           Cu9   2.057       .  S
O3           C13   1.284       .  A
O4           Cu9   2.063       .  S
O4           C14   1.286       .  A
O5          Cu10   1.996       .  S
O5           C14   1.275       .  A
O6          Cu10   1.994       .  S
O6           C13   1.276       .  A
O7          Cu10   2.049       .  S
O7           C12   1.284       .  A
O8          Cu10   2.051       .  S
O8           C11   1.283       .  A
Cu9         Cu10   2.365       .  S
C11         C701   1.483       .  S
C12         C677   1.482       .  S
C13         C725   1.495       .  S
C14         C653   1.503       .  S
O15         Cu23   1.986       .  S
O15          C25   1.275       .  A
O16         Cu23   1.963       .  S
O16          C26   1.272       .  A
O17         Cu23   2.056       .  S
O17          C27   1.284       .  A
O18         Cu23   2.058       .  S
O18          C28   1.285       .  A
O19         Cu24   2.003       .  S
O19          C28   1.276       .  A
O20         Cu24   1.994       .  S
O20          C27   1.275       .  A
O21         Cu24   2.026       .  S
O21          C26   1.280       .  A
O22         Cu24   2.026       .  S
O22          C25   1.281       .  A
Cu23        Cu24   2.368       .  S
C25         C581   1.479       .  S
C26         C614   1.467       .  S
C27         C734   1.487       .  S
C28         C629   1.504       .  S
O29         Cu37   1.989       .  S
O29          C39   1.274       .  A
O30         Cu37   1.965       .  S
O30          C40   1.272       .  A
O31         Cu37   2.051       .  S
O31          C41   1.283       .  A
O32         Cu37   2.055       .  S
O32          C42   1.285       .  A
O33         Cu38   2.002       .  S
O33          C42   1.276       .  A
O34         Cu38   1.994       .  S
O34          C41   1.275       .  A
O35         Cu38   2.043       .  S
O35          C40   1.282       .  A
O36         Cu38   2.039       .  S
O36          C39   1.282       .  A
Cu37        Cu38   2.367       .  S
C39         C710   1.482       .  S
C40         C686   1.479       .  S
C41         C557   1.484       .  S
C42         C533   1.501       .  S
O43         Cu51   1.998       .  S
O43          C53   1.276       .  A
O44         Cu51   1.996       .  S
O44          C54   1.275       .  A
O45         Cu51   2.020       .  S
O45          C55   1.279       .  A
O46         Cu51   2.024       .  S
O46          C56   1.281       .  A
O47         Cu52   1.971       .  S
O47          C56   1.273       .  A
O48         Cu52   1.987       .  S
O48          C55   1.275       .  A
O49         Cu52   2.057       .  S
O49          C54   1.284       .  A
O50         Cu52   2.047       .  S
O50          C53   1.283       .  A
Cu51        Cu52   2.371       .  S
C53         C566   1.491       .  S
C54         C509   1.488       .  S
C55         C590   1.468       .  S
C56         C605   1.477       .  S
O57         Cu65   1.991       .  S
O57          C67   1.275       .  A
O58         Cu65   1.995       .  S
O58          C68   1.276       .  A
O59         Cu65   2.035       .  S
O59          C69   1.282       .  A
O60         Cu65   2.038       .  S
O60          C70   1.282       .  A
O61         Cu66   1.969       .  S
O61          C70   1.273       .  A
O62         Cu66   1.984       .  S
O62          C69   1.274       .  A
O63         Cu66   2.063       .  S
O63          C68   1.285       .  A
O64         Cu66   2.052       .  S
O64          C67   1.283       .  A
Cu65        Cu66   2.367       .  S
C67         C485   1.486       .  S
C68         C638   1.502       .  S
C69         C437   1.480       .  S
C70         C470   1.481       .  S
O71         Cu79   2.002       .  S
O71          C81   1.276       .  A
O72         Cu79   1.997       .  S
O72          C82   1.276       .  A
O73         Cu79   2.025       .  S
O73          C83   1.280       .  A
O74         Cu79   2.023       .  S
O74          C84   1.280       .  A
O75         Cu80   1.989       .  S
O75          C84   1.275       .  A
O76         Cu80   1.969       .  S
O76          C83   1.273       .  A
O77         Cu80   2.044       .  S
O77          C82   1.282       .  A
O78         Cu80   2.043       .  S
O78          C81   1.283       .  A
Cu79        Cu80   2.369       .  S
C81         C413   1.498       .  S
C82         C494   1.486       .  S
C83         C365   1.467       .  S
C84         C389   1.477       .  S
O85         Cu93   2.012       .  S
O85          C95   1.278       .  A
O86         Cu93   2.006       .  S
O86          C96   1.277       .  A
O87         Cu93   2.029       .  S
O87          C97   1.280       .  A
O88         Cu93   2.023       .  S
O88          C98   1.279       .  A
O89         Cu94   1.996       .  S
O89          C98   1.276       .  A
O90         Cu94   1.976       .  S
O90          C97   1.274       .  A
O91         Cu94   2.032       .  S
O91          C96   1.280       .  A
O92         Cu94   2.040       .  S
O92          C95   1.282       .  A
Cu93        Cu94   2.370       .  S
C95         C518   1.496       .  S
C96         C350   1.480       .  S
C97         C461   1.476       .  S
C98         C446   1.473       .  S
O99        Cu107   1.986       .  S
O99         C109   1.274       .  A
O100       Cu107   1.971       .  S
O100        C110   1.273       .  A
O101       Cu107   2.037       .  S
O101        C111   1.281       .  A
O102       Cu107   2.047       .  S
O102        C112   1.284       .  A
O103       Cu108   1.996       .  S
O103        C112   1.276       .  A
O104       Cu108   1.999       .  S
O104        C111   1.276       .  A
O105       Cu108   2.029       .  S
O105        C110   1.281       .  A
O106       Cu108   2.023       .  S
O106        C109   1.279       .  A
Cu107      Cu108   2.370       .  S
C109        C398   1.468       .  S
C110        C374   1.477       .  S
C111        C341   1.480       .  S
C112        C317   1.495       .  S
O113       Cu121   1.992       .  S
O113        C123   1.275       .  A
O114       Cu121   1.991       .  S
O114        C124   1.275       .  A
O115       Cu121   2.019       .  S
O115        C125   1.280       .  A
O116       Cu121   2.019       .  S
O116        C126   1.280       .  A
O117       Cu122   1.968       .  S
O117        C126   1.272       .  A
O118       Cu122   1.951       .  S
O118        C125   1.271       .  A
O119       Cu122   2.058       .  S
O119        C124   1.284       .  A
O120       Cu122   2.065       .  S
O120        C123   1.286       .  A
Cu121      Cu122   2.368       .  S
C123        C542   1.500       .  S
C124        C302   1.491       .  S
C125        C278   1.471       .  S
C126        C245   1.467       .  S
O127       Cu135   1.975       .  S
O127        C137   1.273       .  A
O128       Cu135   1.990       .  S
O128        C138   1.275       .  A
O129       Cu135   2.052       .  S
O129        C139   1.284       .  A
O130       Cu135   2.049       .  S
O130        C140   1.283       .  A
O131       Cu136   1.990       .  S
O131        C140   1.275       .  A
O132       Cu136   1.997       .  S
O132        C139   1.276       .  A
O133       Cu136   2.031       .  S
O133        C138   1.282       .  A
O134       Cu136   2.035       .  S
O134        C137   1.282       .  A
Cu135      Cu136   2.369       .  S
C137        C197   1.476       .  S
C138        C230   1.484       .  S
C139        C326   1.498       .  S
C140        C293   1.482       .  S
O141       Cu149   1.991       .  S
O141        C151   1.276       .  A
O142       Cu149   1.992       .  S
O142        C152   1.276       .  A
O143       Cu149   2.007       .  S
O143        C153   1.279       .  A
O144       Cu149   2.007       .  S
O144        C154   1.278       .  A
O145       Cu150   1.982       .  S
O145        C154   1.274       .  A
O146       Cu150   1.962       .  S
O146        C153   1.273       .  A
O147       Cu150   2.057       .  S
O147        C152   1.284       .  A
O148       Cu150   2.063       .  S
O148        C151   1.285       .  A
Cu149      Cu150   2.369       .  S
C151        C662   1.500       .  S
C152        C173   1.490       .  S
C153        C269   1.471       .  S
C154        C254   1.464       .  S
O155       Cu163   1.994       .  S
O155        C165   1.275       .  A
O156       Cu163   1.999       .  S
O156        C166   1.276       .  A
O157       Cu163   2.045       .  S
O157        C167   1.283       .  A
O158       Cu163   2.040       .  S
O158        C168   1.281       .  A
O159       Cu164   1.965       .  S
O159        C168   1.272       .  A
O160       Cu164   1.981       .  S
O160        C167   1.273       .  A
O161       Cu164   2.048       .  S
O161        C166   1.284       .  A
O162       Cu164   2.055       .  S
O162        C165   1.284       .  A
Cu163      Cu164   2.365       .  S
C165        C182   1.499       .  S
C166        C422   1.498       .  S
C167        C221   1.492       .  S
C168        C206   1.470       .  S
C169        C170   1.408       .  A
C169        C174   1.412       .  A
C169        H179   1.083       .  S
C170        C175   1.494       .  S
C170        C171   1.409       .  A
C171        C172   1.398       .  A
C171        O176   1.372       .  S
C172        C173   1.405       .  A
C172        H177   1.084       .  S
C173        C174   1.413       .  A
C174        O178   1.371       .  S
C175        C180   1.409       .  A
C175        C184   1.401       .  A
O176        H192   0.992       .  S
O178        H189   0.992       .  S
C180        C181   1.412       .  A
C180        O185   1.371       .  S
C181        C182   1.411       .  A
C181        H186   1.083       .  S
C182        C183   1.417       .  A
C183        C184   1.399       .  A
C183        O187   1.372       .  S
C184        H188   1.084       .  S
O185        H190   0.992       .  S
O187        H191   0.993       .  S
C193        C194   1.399       .  A
C193        C198   1.397   1_545  A
C193        H203   1.083       .  S
C194        C199   1.481       .  S
C194        C195   1.412       .  A
C195        C196   1.401   1_545  A
C195        O200   1.372       .  S
C196        C197   1.401       .  A
C196        H201   1.084       .  S
C197        C198   1.413       .  A
C198        O202   1.372       .  S
C199        C204   1.411       .  A
C199        C208   1.401       .  A
O200        H216   0.991       .  S
O202        H213   0.992       .  S
C204        C205   1.405       .  A
C204        O209   1.371       .  S
C205        C206   1.402       .  A
C205        H210   1.083       .  S
C206        C207   1.409       .  A
C207        C208   1.393       .  A
C207        O211   1.373       .  S
C208        H212   1.084       .  S
O209        H214   0.992       .  S
O211        H215   0.992       .  S
C217        C218   1.399       .  A
C217        C222   1.397   1_455  A
C217        H227   1.084       .  S
C218        C223   1.486       .  S
C218        C219   1.411   1_455  A
C219        C220   1.407       .  A
C219        O224   1.372       .  S
C220        C221   1.407       .  A
C220        H225   1.083       .  S
C221        C222   1.418       .  A
C222        O226   1.372       .  S
C223        C228   1.407       .  A
C223        C232   1.405       .  A
O224        H240   0.991       .  S
O226        H237   0.992       .  S
C228        C229   1.401       .  A
C228        O233   1.371       .  S
C229        C230   1.408       .  A
C229        H234   1.084       .  S
C230        C231   1.410       .  A
C231        C232   1.401       .  A
C231        O235   1.371       .  S
C232        H236   1.084       .  S
O233        H238   0.992       .  S
O235        H239   0.992       .  S
C241        C242   1.401       .  A
C241        C246   1.393   1_545  A
C241        H251   1.083       .  S
C242        C247   1.477       .  S
C242        C243   1.411   1_545  A
C243        C244   1.397       .  A
C243        O248   1.371       .  S
C244        C245   1.400       .  A
C244        H249   1.084       .  S
C245        C246   1.410       .  A
C246        O250   1.372       .  S
C247        C252   1.411       .  A
C247        C256   1.402       .  A
O248        H264   0.991       .  S
O250        H261   0.991       .  S
C252        C253   1.400       .  A
C252        O257   1.373       .  S
C253        C254   1.400       .  A
C253        H258   1.084       .  S
C254        C255   1.407       .  A
C255        C256   1.393       .  A
C255        O259   1.372       .  S
C256        H260   1.084       .  S
O257        H262   0.992       .  S
O259        H263   0.992       .  S
C265        C266   1.401       .  A
C265        C270   1.395       .  A
C265        H275   1.084       .  S
C266        C271   1.464   1_655  S
C266        C267   1.402       .  A
C267        C268   1.390       .  A
C267        O272   1.372   1_655  S
C268        C269   1.407       .  A
C268        H273   1.083       .  S
C269        C270   1.410       .  A
C270        O274   1.371       .  S
C271        C276   1.401       .  A
C271        C280   1.403       .  A
O272        H288   0.993       .  S
O274        H285   0.991       .  S
C276        C277   1.387       .  A
C276        O281   1.373       .  S
C277        C278   1.407       .  A
C277        H282   1.083       .  S
C278        C279   1.409       .  A
C279        C280   1.398       .  A
C279        O283   1.371       .  S
C280        H284   1.084       .  S
O281        H286   0.992       .  S
O283        H287   0.992       .  S
C289        C290   1.405       .  A
C289        C294   1.408       .  A
C289        H299   1.083       .  S
C290        C295   1.486       .  S
C290        C291   1.407       .  A
C291        C292   1.401       .  A
C291        O296   1.372       .  S
C292        C293   1.405       .  A
C292        H297   1.084       .  S
C293        C294   1.410       .  A
C294        O298   1.371       .  S
C295        C300   1.409       .  A
C295        C304   1.400       .  A
O296        H312   0.991       .  S
O298        H309   0.992       .  S
C300        C301   1.411       .  A
C300        O305   1.371       .  S
C301        C302   1.408       .  A
C301        H306   1.083       .  S
C302        C303   1.414       .  A
C303        C304   1.399       .  A
C303        O307   1.372       .  S
C304        H308   1.084       .  S
O305        H310   0.991       .  S
O307        H311   0.991       .  S
C313        C314   1.401       .  A
C313        C318   1.402       .  A
C313        H323   1.084       .  S
C314        C319   1.491       .  S
C314        C315   1.410       .  A
C315        C316   1.408       .  A
C315        O320   1.372       .  S
C316        C317   1.407       .  A
C316        H321   1.083       .  S
C317        C318   1.416       .  A
C318        O322   1.372       .  S
C319        C324   1.406       .  A
C319        C328   1.407       .  A
O320        H336   0.992       .  S
O322        H333   0.991       .  S
C324        C325   1.404       .  A
C324        O329   1.372       .  S
C325        C326   1.411       .  A
C325        H330   1.083       .  S
C326        C327   1.412       .  A
C327        C328   1.407       .  A
C327        O331   1.371       .  S
C328        H332   1.084       .  S
O329        H334   0.992       .  S
O331        H335   0.992       .  S
C337        C338   1.402       .  A
C337        C342   1.400       .  A
C337        H347   1.084       .  S
C338        C343   1.484       .  S
C338        C339   1.409       .  A
C339        C340   1.407       .  A
C339        O344   1.371       .  S
C340        C341   1.406       .  A
C340        H345   1.084       .  S
C341        C342   1.409       .  A
C342        O346   1.372       .  S
C343        C348   1.408       .  A
C343        C352   1.404       .  A
O344        H360   0.992       .  S
O346        H357   0.992       .  S
C348        C349   1.402       .  A
C348        O353   1.372       .  S
C349        C350   1.404       .  A
C349        H354   1.084       .  S
C350        C351   1.409       .  A
C351        C352   1.405       .  A
C351        O355   1.371       .  S
C352        H356   1.083       .  S
O353        H358   0.992       .  S
O355        H359   0.992       .  S
C361        C362   1.399       .  A
C361        C366   1.392       .  A
C361        H371   1.084       .  S
C362        C367   1.473       .  S
C362        C363   1.409       .  A
C363        C364   1.402       .  A
C363        O368   1.371       .  S
C364        C365   1.402       .  A
C364        H369   1.084       .  S
C365        C366   1.408       .  A
C366        O370   1.372       .  S
C367        C372   1.409   1_545  A
C367        C376   1.397       .  A
O368        H384   0.992       .  S
O370        H381   0.992       .  S
C372        C373   1.401       .  A
C372        O377   1.372       .  S
C373        C374   1.404       .  A
C373        H378   1.083       .  S
C374        C375   1.414       .  A
C375        C376   1.394   1_565  A
C375        O379   1.372       .  S
C376        H380   1.084       .  S
O377        H382   0.992       .  S
O379        H383   0.992       .  S
C385        C386   1.402       .  A
C385        C390   1.397       .  A
C385        H395   1.084       .  S
C386        C391   1.483       .  S
C386        C387   1.411       .  A
C387        C388   1.401       .  A
C387        O392   1.371       .  S
C388        C389   1.403       .  A
C388        H393   1.084       .  S
C389        C390   1.412       .  A
C390        O394   1.372       .  S
C391        C396   1.412       .  A
C391        C400   1.403       .  A
O392        H408   0.992       .  S
O394        H405   0.992       .  S
C396        C397   1.401       .  A
C396        O401   1.371       .  S
C397        C398   1.401       .  A
C397        H402   1.084       .  S
C398        C399   1.407       .  A
C399        C400   1.396       .  A
C399        O403   1.372       .  S
C400        H404   1.084       .  S
O401        H406   0.992       .  S
O403        H407   0.995       .  S
C409        C410   1.402       .  A
C409        C414   1.402       .  A
C409        H419   1.084       .  S
C410        C415   1.496       .  S
C410        C411   1.412       .  A
C411        C412   1.408       .  A
C411        O416   1.373       .  S
C412        C413   1.407       .  A
C412        H417   1.083       .  S
C413        C414   1.418       .  A
C414        O418   1.371       .  S
C415        C420   1.408       .  A
C415        C424   1.408       .  A
O416        H432   0.992       .  S
O418        H429   0.992       .  S
C420        C421   1.402       .  A
C420        O425   1.371       .  S
C421        C422   1.410       .  A
C421        H426   1.083       .  S
C422        C423   1.413       .  A
C423        C424   1.408       .  A
C423        O427   1.371       .  S
C424        H428   1.083       .  S
O425        H430   0.992       .  S
O427        H431   0.992       .  S
C433        C434   1.402       .  A
C433        C438   1.397       .  A
C433        H443   1.084       .  S
C434        C439   1.487       .  S
C434        C435   1.413       .  A
C435        C436   1.403       .  A
C435        O440   1.371       .  S
C436        C437   1.402       .  A
C436        H441   1.083       .  S
C437        C438   1.413       .  A
C438        O442   1.372       .  S
C439        C444   1.414   1_545  A
C439        C448   1.403   1_545  A
O440        H456   0.992       .  S
O442        H453   0.991       .  S
C444        C445   1.403       .  A
C444        O449   1.371       .  S
C445        C446   1.401       .  A
C445        H450   1.084       .  S
C446        C447   1.408       .  A
C447        C448   1.397       .  A
C447        O451   1.372       .  S
C448        H452   1.083   1_565  S
O449        H454   0.991       .  S
O451        H455   0.993       .  S
C457        C458   1.406       .  A
C457        C462   1.403       .  A
C457        H467   1.083       .  S
C458        C463   1.481       .  S
C458        C459   1.407       .  A
C459        C460   1.393       .  A
C459        O464   1.372       .  S
C460        C461   1.404       .  A
C460        H465   1.084       .  S
C461        C462   1.409       .  A
C462        O466   1.371       .  S
C463        C468   1.404       .  A
C463        C472   1.407       .  A
O464        H480   0.993       .  S
O466        H477   0.992       .  S
C468        C469   1.396       .  A
C468        O473   1.372       .  S
C469        C470   1.408       .  A
C469        H474   1.084       .  S
C470        C471   1.408       .  A
C471        C472   1.402       .  A
C471        O475   1.371       .  S
C472        H476   1.084       .  S
O473        H478   0.992       .  S
O475        H479   0.992       .  S
C481        C482   1.401       .  A
C481        C486   1.400       .  A
C481        H491   1.084       .  S
C482        C487   1.484       .  S
C482        C483   1.408       .  A
C483        C484   1.408       .  A
C483        O488   1.371       .  S
C484        C485   1.406       .  A
C484        H489   1.083       .  S
C485        C486   1.413       .  A
C486        O490   1.372       .  S
C487        C492   1.406       .  A
C487        C496   1.404       .  A
O488        H504   0.992       .  S
O490        H501   0.992       .  S
C492        C493   1.399       .  A
C492        O497   1.372       .  S
C493        C494   1.405       .  A
C493        H498   1.084       .  S
C494        C495   1.412       .  A
C495        C496   1.409       .  A
C495        O499   1.371       .  S
C496        H500   1.083       .  S
O497        H502   0.992       .  S
O499        H503   0.991       .  S
C505        C506   1.405       .  A
C505        C510   1.403       .  A
C505        H515   1.083       .  S
C506        C511   1.497       .  S
C506        C507   1.413       .  A
C507        C508   1.409       .  A
C507        O512   1.371       .  S
C508        C509   1.405       .  A
C508        H513   1.083       .  S
C509        C510   1.411       .  A
C510        O514   1.372       .  S
C511        C516   1.410       .  A
C511        C520   1.407       .  A
O512        H528   0.991       .  S
O514        H525   0.991       .  S
C516        C517   1.403       .  A
C516        O521   1.372       .  S
C517        C518   1.408       .  A
C517        H522   1.083       .  S
C518        C519   1.414       .  A
C519        C520   1.408       .  A
C519        O523   1.371       .  S
C520        H524   1.083       .  S
O521        H526   0.992       .  S
O523        H527   0.992       .  S
C529        C530   1.402       .  A
C529        C534   1.405       .  A
C529        H539   1.084       .  S
C530        C535   1.497       .  S
C530        C531   1.412       .  A
C531        C532   1.409       .  A
C531        O536   1.372       .  S
C532        C533   1.407       .  A
C532        H537   1.083       .  S
C533        C534   1.418       .  A
C534        O538   1.371       .  S
C535        C540   1.406       .  A
C535        C544   1.409       .  A
O536        H552   0.992       .  S
O538        H549   0.991       .  S
C540        C541   1.401       .  A
C540        O545   1.372       .  S
C541        C542   1.411       .  A
C541        H546   1.083       .  S
C542        C543   1.413       .  A
C543        C544   1.412       .  A
C543        O547   1.371       .  S
C544        H548   1.083       .  S
O545        H550   0.992       .  S
O547        H551   0.992       .  S
C553        C554   1.405       .  A
C553        C558   1.409       .  A
C553        H563   1.083       .  S
C554        C559   1.486   1_554  S
C554        C555   1.406       .  A
C555        C556   1.401       .  A
C555        O560   1.371       .  S
C556        C557   1.405       .  A
C556        H561   1.084       .  S
C557        C558   1.410       .  A
C558        O562   1.371       .  S
C559        C564   1.408       .  A
C559        C568   1.400       .  A
O560        H576   0.992       .  S
O562        H573   0.992       .  S
C564        C565   1.409       .  A
C564        O569   1.371       .  S
C565        C566   1.408       .  A
C565        H570   1.083       .  S
C566        C567   1.414       .  A
C567        C568   1.401       .  A
C567        O571   1.372       .  S
C568        H572   1.084       .  S
O569        H574   0.992       .  S
O571        H575   0.992       .  S
C577        C578   1.407       .  A
C577        C582   1.401       .  A
C577        H587   1.083       .  S
C578        C583   1.486   1_655  S
C578        C579   1.408       .  A
C579        C580   1.396       .  A
C579        O584   1.372   1_655  S
C580        C581   1.406       .  A
C580        H585   1.084       .  S
C581        C582   1.407       .  A
C582        O586   1.371       .  S
C583        C588   1.409       .  A
C583        C592   1.408       .  A
O584        H600   0.992       .  S
O586        H597   0.992       .  S
C588        C589   1.397       .  A
C588        O593   1.373       .  S
C589        C590   1.401       .  A
C589        H594   1.084       .  S
C590        C591   1.404       .  A
C591        C592   1.401       .  A
C591        O595   1.371       .  S
C592        H596   1.083       .  S
O593        H598   0.992       .  S
O595        H599   0.991       .  S
C601        C602   1.404       .  A
C601        C606   1.398       .  A
C601        H611   1.084       .  S
C602        C607   1.474       .  S
C602        C603   1.403       .  A
C603        C604   1.394       .  A
C603        O608   1.372       .  S
C604        C605   1.408       .  A
C604        H609   1.083       .  S
C605        C606   1.409       .  A
C606        O610   1.371       .  S
C607        C612   1.405       .  A
C607        C616   1.405       .  A
O608        H624   0.992       .  S
O610        H621   0.992       .  S
C612        C613   1.392       .  A
C612        O617   1.373       .  S
C613        C614   1.403       .  A
C613        H618   1.084       .  S
C614        C615   1.407       .  A
C615        C616   1.401       .  A
C615        O619   1.372       .  S
C616        H620   1.083       .  S
O617        H622   0.992       .  S
O619        H623   0.992       .  S
C625        C626   1.401       .  A
C625        C630   1.404       .  A
C625        H635   1.084       .  S
C626        C631   1.498       .  S
C626        C627   1.412       .  A
C627        C628   1.411       .  A
C627        O632   1.372       .  S
C628        C629   1.409       .  A
C628        H633   1.083       .  S
C629        C630   1.420       .  A
C630        O634   1.372       .  S
C631        C636   1.407       .  A
C631        C640   1.409       .  A
O632        H648   0.992       .  S
O634        H645   0.992       .  S
C636        C637   1.402       .  A
C636        O641   1.371       .  S
C637        C638   1.411       .  A
C637        H642   1.083       .  S
C638        C639   1.414       .  A
C639        C640   1.411       .  A
C639        O643   1.371       .  S
C640        H644   1.083       .  S
O641        H646   0.992       .  S
O643        H647   0.992       .  S
C649        C650   1.400       .  A
C649        C654   1.404       .  A
C649        H659   1.084       .  S
C650        C655   1.496       .  S
C650        C651   1.412       .  A
C651        C652   1.410       .  A
C651        O656   1.372       .  S
C652        C653   1.408       .  A
C652        H657   1.083       .  S
C653        C654   1.421       .  A
C654        O658   1.372       .  S
C655        C660   1.406       .  A
C655        C664   1.409       .  A
O656        H672   0.992       .  S
O658        H669   0.992       .  S
C660        C661   1.400       .  A
C660        O665   1.371       .  S
C661        C662   1.410       .  A
C661        H666   1.083       .  S
C662        C663   1.414       .  A
C663        C664   1.412       .  A
C663        O667   1.371       .  S
C664        H668   1.083       .  S
O665        H670   0.992       .  S
O667        H671   0.992       .  S
C673        C674   1.409       .  A
C673        C678   1.404       .  A
C673        H683   1.083       .  S
C674        C679   1.485   1_655  S
C674        C675   1.405       .  A
C675        C676   1.394       .  A
C675        O680   1.372   1_655  S
C676        C677   1.409       .  A
C676        H681   1.084       .  S
C677        C678   1.407       .  A
C678        O682   1.371       .  S
C679        C684   1.406       .  A
C679        C688   1.408       .  A
O680        H696   0.993       .  S
O682        H693   0.992       .  S
C684        C685   1.394       .  A
C684        O689   1.373       .  S
C685        C686   1.405       .  A
C685        H690   1.084       .  S
C686        C687   1.408       .  A
C687        C688   1.405       .  A
C687        O691   1.371       .  S
C688        H692   1.083       .  S
O689        H694   0.992       .  S
O691        H695   0.992       .  S
C697        C698   1.403       .  A
C697        C702   1.396       .  A
C697        H707   1.082       .  S
C698        C703   1.498       .  S
C698        C699   1.418       .  A
C699        C700   1.408       .  A
C699        O704   1.371       .  S
C700        C701   1.402       .  A
C700        H705   1.083       .  S
C701        C702   1.412       .  A
C702        O706   1.372       .  S
C703        C708   1.417       .  A
C703        C712   1.404       .  A
O704        H720   0.991       .  S
O706        H717   0.994       .  S
C708        C709   1.406       .  A
C708        O713   1.373       .  S
C709        C710   1.400       .  A
C709        H714   1.084       .  S
C710        C711   1.412       .  A
C711        C712   1.400       .  A
C711        O715   1.372       .  S
C712        H716   1.083       .  S
O713        H718   0.992       .  S
O715        H719   0.992       .  S
C721        C722   1.405       .  A
C721        C726   1.411       .  A
C721        H731   1.083       .  S
C722        C727   1.489   1_554  S
C722        C723   1.406       .  A
C723        C724   1.400       .  A
C723        O728   1.372       .  S
C724        C725   1.409       .  A
C724        H729   1.084       .  S
C725        C726   1.413       .  A
C726        O730   1.371       .  S
C727        C732   1.409       .  A
C727        C736   1.402       .  A
O728        H744   0.992       .  S
O730        H741   0.990       .  S
C732        C733   1.410       .  A
C732        O737   1.371       .  S
C733        C734   1.407       .  A
C733        H738   1.083       .  S
C734        C735   1.411       .  A
C735        C736   1.401       .  A
C735        O739   1.372       .  S
C736        H740   1.084       .  S
O737        H742   0.992       .  S
O739        H743   0.992       .  S
