geometry optimzed in LAMMPS
_audit_creation_date              2020-12-01 
_audit_creation_method            'lammps2cif' 
_symmetry_space_group_name_H-M    'P1' 
_symmetry_Int_Tables_number       1 
_symmetry_cell_setting            triclinic 
loop_ 
_symmetry_equiv_pos_as_xyz 
  x,y,z 
_cell_length_a                    23.64843414 
_cell_length_b                    23.908657508395464 
_cell_length_c                    24.077873417344506 
_cell_angle_alpha                 94.38032252874616 
_cell_angle_beta                  92.28844680789523 
_cell_angle_gamma                 89.65328472226648 
loop_ 
_atom_site_label 
_atom_site_type_symbol 
_atom_site_fract_x 
_atom_site_fract_y 
_atom_site_fract_z 
_atom_site_charge 
C1          C  0.26660733  0.28467080  0.29201611     0.30500
C2          C  0.21462949  0.22516792  0.20386251     0.30500
C3          C  0.30436017  0.27301392  0.24059048    -0.05700
C4          C  0.24359136  0.22598133  0.30240681    -0.06500
C5          C  0.21429700  0.31350559  0.26591213    -0.06400
C6          C  0.27700034  0.24179785  0.19752872    -0.05700
C7          C  0.21725614  0.19422505  0.25884588    -0.06500
C8          C  0.18578209  0.28146547  0.22303903    -0.06400
C9          C  0.31286941  0.23512010  0.15383529    -0.31800
N10         N  0.36061886  0.26434038  0.16545532     0.14700
C11         C  0.35676865  0.28777791  0.21929930    -0.31800
H12         H  0.38852176  0.31469115  0.24082217     0.16700
C13         C  0.20244783  0.14375508  0.28179693    -0.30800
N14         N  0.22021034  0.14543435  0.33729708     0.13400
C15         C  0.24505415  0.19555595  0.34863746    -0.30800
C16         C  0.13477582  0.30857783  0.21291578    -0.31000
N17         N  0.13498321  0.35907960  0.24296490     0.14000
H18         H  0.10050742  0.29327831  0.18476750     0.16600
C19         C  0.18428110  0.36319145  0.27400596    -0.31100
H20         H  0.19622869  0.39907255  0.30206402     0.16600
H21         H  0.26490761  0.20831291  0.38840008     0.16600
H22         H  0.30456185  0.21182951  0.11440796     0.16700
H23         H  0.18099390  0.10854250  0.25942615     0.16600
N24         N  0.98708807  0.41548727  0.24499585    -0.36100
N25         N  0.89608304  0.50033750  0.24827828    -0.56700
N26         N  0.98137181  0.58584405  0.23370284    -0.36100
N27         N  0.07171836  0.50181582  0.24064680    -0.56700
C28         C  0.94335559  0.38685183  0.26378254     0.27400
C29         C  0.03534267  0.38717119  0.25750714     0.27400
C30         C  0.93525071  0.61722395  0.24803922     0.27400
C31         C  0.02815408  0.61818251  0.24615734     0.27400
C32         C  0.86534901  0.45232615  0.24031567     0.36100
C33         C  0.86193776  0.54300113  0.23310069     0.36100
C34         C  0.10401158  0.45575053  0.22910570     0.36100
C35         C  0.10141893  0.54592356  0.22542857     0.36100
C36         C  0.96443284  0.34063122  0.28957752    -0.21400
C37         C  0.02234278  0.34047366  0.28498142    -0.21400
C38         C  0.95353560  0.66922309  0.27065537    -0.21400
C39         C  0.01164007  0.67017562  0.26901853    -0.21400
C40         C  0.81156841  0.46438694  0.21968143    -0.22500
C41         C  0.80951461  0.52152639  0.21469389    -0.22500
C42         C  0.15403502  0.47044806  0.20630121    -0.22500
C43         C  0.15221757  0.52755209  0.20348695    -0.22500
C44         C  0.88486003  0.39819071  0.25333985    -0.17800
C45         C  0.09050486  0.40111145  0.24242883    -0.17800
C46         C  0.08523270  0.60277348  0.23544054    -0.17800
C47         C  0.87717224  0.60106390  0.23890369    -0.17800
H48         H  0.94059686  0.30988492  0.30946250     0.15100
H49         H  0.05155659  0.30963952  0.30028883     0.15100
H50         H  0.92788529  0.70279547  0.28775759     0.15100
H51         H  0.03863512  0.70498663  0.28386325     0.15100
H52         H  0.77758050  0.43503307  0.20857543     0.13400
H53         H  0.77358002  0.54420150  0.19856511     0.13400
H54         H  0.18819546  0.44291749  0.19295408     0.13400
H55         H  0.18471161  0.55243006  0.18693651     0.13400
H56         H  0.98356125  0.44858237  0.21930952     0.26600
H57         H  0.98058633  0.54661162  0.21162434     0.26600
C58         C  0.76952134  0.78927946  0.22248401     0.30500
C59         C  0.69310577  0.71936164  0.26217915     0.30500
C60         C  0.78956983  0.72821614  0.22797251    -0.05700
C61         C  0.74656913  0.80775704  0.28032418    -0.06500
C62         C  0.71350683  0.78056197  0.18466648    -0.06400
C63         C  0.75237730  0.69411932  0.25122768    -0.05700
C64         C  0.70820419  0.77283759  0.30294189    -0.06500
C65         C  0.67517867  0.74551502  0.20713171    -0.06400
C66         C  0.78051782  0.64367168  0.25886708    -0.31800
N67         N  0.83316290  0.64487997  0.23762094     0.14700
C68         C  0.83816278  0.69655928  0.21763488    -0.31800
H69         H  0.87514581  0.71099488  0.19794414     0.16700
C70         C  0.69953102  0.79907961  0.35709876    -0.30800
N71         N  0.73052606  0.84809561  0.36557218     0.13400
C72         C  0.75862341  0.85273797  0.31828648    -0.30800
C73         C  0.62820248  0.73902180  0.17109665    -0.31000
N74         N  0.63500484  0.76743695  0.12517518     0.14000
H75         H  0.59158812  0.71367981  0.17751649     0.16600
C76         C  0.68745895  0.79281165  0.13264084    -0.31100
H77         H  0.70556351  0.81796580  0.10242609     0.16600
H78         H  0.78716065  0.88673459  0.31199813     0.16600
H79         H  0.76371693  0.60902262  0.27938337     0.16700
H80         H  0.67270421  0.78366937  0.38785328     0.16600
N81         N  0.22504578  0.00078437  0.39037972    -0.36100
N82         N  0.24221849  0.09510090  0.48087137    -0.56700
N83         N  0.24144361  0.01352489  0.56335771    -0.36100
N84         N  0.23620655  0.92022542  0.47425252    -0.56700
C85         C  0.23384413  0.04603702  0.36099865     0.27400
C86         C  0.24033083  0.95390119  0.35842917     0.27400
C87         C  0.26186195  0.05887591  0.59548288     0.27400
C88         C  0.24963308  0.96776806  0.59268731     0.27400
C89         C  0.21809636  0.12144431  0.43744476     0.36100
C90         C  0.23704864  0.12978298  0.52854261     0.36100
C91         C  0.22477042  0.88499066  0.42804918     0.36100
C92         C  0.22052514  0.89324428  0.51879425     0.36100
C93         C  0.25552748  0.02776402  0.31002216    -0.21400
C94         C  0.25958178  0.96997435  0.30843848    -0.21400
C95         C  0.28479380  0.04095872  0.64507312    -0.21400
C96         C  0.27635537  0.98378790  0.64362104    -0.21400
C97         C  0.19686604  0.17289885  0.45851126    -0.22500
C98         C  0.20982095  0.17853490  0.51529725    -0.22500
C99         C  0.20198059  0.83561012  0.44328413    -0.22500
C100        C  0.19844750  0.84110383  0.50041298    -0.22500
C101        C  0.22103003  0.10295816  0.37861887    -0.17800
C102        C  0.23454982  0.89701229  0.37223291    -0.17800
C103        C  0.23052920  0.91252839  0.57598673    -0.17800
C104        C  0.25373008  0.11627920  0.58415339    -0.17800
H105        H  0.26840192  0.05315283  0.27748854     0.15100
H106        H  0.27541466  0.94302442  0.27433136     0.15100
H107        H  0.30423236  0.06656699  0.67956430     0.15100
H108        H  0.28838812  0.95711250  0.67650012     0.15100
H109        H  0.17461013  0.20377120  0.43522323     0.13400
H110        H  0.19848937  0.21360217  0.54384234     0.13400
H111        H  0.18789492  0.79993683  0.41598544     0.13400
H112        H  0.18167262  0.80985714  0.52544403     0.13400
H113        H  0.20475348  0.00211418  0.42797486     0.26600
H114        H  0.21665451  0.01403803  0.52679955     0.26600
N115        N  0.75120445  0.99429959  0.43180798    -0.36100
N116        N  0.75441078  0.08785631  0.52006059    -0.56700
N117        N  0.76318324  0.00807410  0.60408188    -0.36100
N118        N  0.74810479  0.91408089  0.51455807    -0.56700
C119        C  0.74356885  0.04010454  0.40231881     0.27400
C120        C  0.72843266  0.94927794  0.40065268     0.27400
C121        C  0.74397567  0.05439581  0.63422291     0.27400
C122        C  0.75262582  0.96283903  0.63277294     0.27400
C123        C  0.77123139  0.11502185  0.47619421     0.36100
C124        C  0.76252107  0.12368331  0.56634311     0.36100
C125        C  0.75159687  0.87842684  0.46768418     0.36100
C126        C  0.77127812  0.88757646  0.55797954     0.36100
C127        C  0.71536400  0.02440556  0.35208979    -0.21400
C128        C  0.70525689  0.96747294  0.35130666    -0.21400
C129        C  0.72020328  0.03804026  0.68194950    -0.21400
C130        C  0.72619710  0.98049858  0.68147993    -0.21400
C131        C  0.79076624  0.16807215  0.49516332    -0.22500
C132        C  0.78429204  0.17382338  0.55197785    -0.22500
C133        C  0.77711487  0.82890267  0.48128394    -0.22500
C134        C  0.79046781  0.83498658  0.53792739    -0.22500
C135        C  0.76284117  0.09542718  0.41891868    -0.17800
C136        C  0.73374421  0.89159250  0.41272509    -0.17800
C137        C  0.76652213  0.90621442  0.61595666    -0.17800
C138        C  0.75024806  0.11122002  0.62127694    -0.17800
H139        H  0.70295847  0.05125841  0.31947488     0.15100
H140        H  0.68420077  0.94213781  0.31756582     0.15100
H141        H  0.69969993  0.06483608  0.71338046     0.15100
H142        H  0.71110584  0.95466378  0.71272913     0.15100
H143        H  0.80712997  0.19994695  0.47061897     0.13400
H144        H  0.79538321  0.21026509  0.57962198     0.13400
H145        H  0.78629874  0.79274909  0.45321371     0.13400
H146        H  0.81057053  0.80341456  0.56198245     0.13400
H147        H  0.77649273  0.99354867  0.46810773     0.26600
H148        H  0.78679204  0.00718751  0.56841005     0.26600
C149        C  0.18751373  0.81017074  0.75123009     0.30500
C150        C  0.25551831  0.74044798  0.68897454     0.30500
C151        C  0.16638804  0.74857105  0.73867213    -0.05700
C152        C  0.20413579  0.83028544  0.69490450    -0.06500
C153        C  0.24757173  0.79928371  0.77962812    -0.06400
C154        C  0.20098179  0.71325690  0.70706028    -0.05700
C155        C  0.23674952  0.79466377  0.66354348    -0.06500
C156        C  0.28218513  0.76311198  0.74650397    -0.06400
C157        C  0.18021199  0.65893855  0.70864676    -0.31800
N158        N  0.13179617  0.66023648  0.73756015     0.14700
C159        C  0.12482274  0.71479123  0.75816139    -0.31800
H160        H  0.09137587  0.72932239  0.78513732     0.16700
C161        C  0.25022766  0.82140483  0.61664262    -0.30800
N162        N  0.22578362  0.87268955  0.61831507     0.13400
C163        C  0.19794203  0.87917699  0.66680090    -0.30800
C164        C  0.32939784  0.75017551  0.77882440    -0.31000
N165        N  0.32702913  0.77772346  0.83031982     0.14000
H166        H  0.36248511  0.72092441  0.76635335     0.16600
C167        C  0.27673265  0.80698932  0.83164153    -0.31100
H168        H  0.26171068  0.83078688  0.86818229     0.16600
H169        H  0.17523790  0.91672834  0.68089174     0.16600
H170        H  0.19854522  0.62129796  0.68886517     0.16700
H171        H  0.27706569  0.80548476  0.58379563     0.16600
N172        N  0.08092932  0.50947738  0.73969809    -0.36100
N173        N  0.99708733  0.42112712  0.75402611    -0.56700
N174        N  0.90572959  0.50566549  0.75053347    -0.36100
N175        N  0.98927919  0.59427065  0.74666088    -0.56700
C176        C  0.11517682  0.46574837  0.75295716     0.27400
C177        C  0.11089127  0.55823206  0.74948663     0.27400
C178        C  0.87853564  0.46114395  0.76873975     0.27400
C179        C  0.87426475  0.55218440  0.76394357     0.27400
C180        C  0.04287379  0.38929556  0.73940367     0.36100
C181        C  0.95059569  0.38768242  0.74543977     0.36100
C182        C  0.03253261  0.62589042  0.73111660     0.36100
C183        C  0.94087961  0.62329324  0.73614037     0.36100
C184        C  0.16738374  0.48752334  0.77186559    -0.21400
C185        C  0.16479835  0.54518196  0.76926115    -0.21400
C186        C  0.82999657  0.48001919  0.79484331    -0.21400
C187        C  0.82701451  0.53726958  0.79134173    -0.21400
C188        C  0.02474017  0.33585042  0.72026362    -0.22500
C189        C  0.96679078  0.33474163  0.72457917    -0.22500
C190        C  0.01096406  0.67424397  0.70982776    -0.22500
C191        C  0.95325187  0.67294407  0.71357062    -0.22500
C192        C  0.10089666  0.40685226  0.74654205    -0.17800
C193        C  0.09129680  0.61394082  0.73963198    -0.17800
C194        C  0.88583339  0.60733454  0.74976345    -0.17800
C195        C  0.89410628  0.40368410  0.75868045    -0.17800
H196        H  0.20364562  0.46474597  0.78722684     0.15100
H197        H  0.19868484  0.57424468  0.78169029     0.15100
H198        H  0.79971908  0.45519085  0.81445476     0.15100
H199        H  0.79397811  0.56481996  0.80734080     0.15100
H200        H  0.05026923  0.30111312  0.70405499     0.13400
H201        H  0.93966398  0.29913416  0.71290096     0.13400
H202        H  0.03414882  0.70706666  0.69281452     0.13400
H203        H  0.92378335  0.70476752  0.70077856     0.13400
H204        H  0.04076204  0.50582201  0.72052635     0.26600
H205        H  0.94035060  0.50355282  0.72503982     0.26600
C206        C  0.70663307  0.29304504  0.74898026     0.30500
C207        C  0.78016746  0.23120155  0.80883846     0.30500
C208        C  0.76612511  0.31838691  0.76146724    -0.05700
C209        C  0.68579039  0.27578887  0.80427572    -0.06500
C210        C  0.72246582  0.23449075  0.71890576    -0.06400
C211        C  0.80329084  0.28765592  0.79215099    -0.05700
C212        C  0.72251590  0.24521582  0.83448597    -0.06500
C213        C  0.76126377  0.20296288  0.75028206    -0.06400
C214        C  0.85588526  0.31376703  0.79171149    -0.31800
N215        N  0.85090609  0.36077635  0.76316885     0.14700
C216        C  0.79626240  0.36263306  0.74305574    -0.31800
H217        H  0.77940727  0.39402158  0.71675240     0.16700
C218        C  0.69366679  0.23040830  0.88033857    -0.30800
N219        N  0.64084807  0.25305885  0.87933141     0.13400
C220        C  0.63534559  0.28045904  0.83208067    -0.30800
C221        C  0.77689474  0.15686654  0.71576983    -0.31000
N222        N  0.74718568  0.15627972  0.66607698     0.14000
H223        H  0.80946367  0.12670591  0.72504921     0.16600
C224        C  0.71465317  0.20404101  0.66711452    -0.31100
H225        H  0.68817731  0.21609860  0.63234014     0.16600
H226        H  0.59757425  0.30244830  0.81890750     0.16600
H227        H  0.89496514  0.29950915  0.81095395     0.16700
H228        H  0.70946257  0.20452676  0.91227836     0.16600
N229        N  0.47478883  0.75936545  0.88977909    -0.36100
N230        N  0.56923878  0.76296474  0.97735926    -0.56700
N231        N  0.48667204  0.75949972  0.06135285    -0.36100
N232        N  0.39245191  0.76792269  0.97529752    -0.56700
C233        C  0.52128860  0.76840631  0.86058557     0.27400
C234        C  0.42918526  0.77984405  0.86131629     0.27400
C235        C  0.53313777  0.77705233  0.09335814     0.27400
C236        C  0.44022962  0.76929878  0.09212788     0.27400
C237        C  0.59614652  0.74340682  0.93088999     0.36100
C238        C  0.60459913  0.75503751  0.02242178     0.36100
C239        C  0.35734454  0.76112304  0.92901228     0.36100
C240        C  0.36444923  0.74862299  0.01803350     0.36100
C241        C  0.50531286  0.79557261  0.81367952    -0.21400
C242        C  0.44739124  0.80281205  0.81405026    -0.21400
C243        C  0.51531107  0.79930604  0.14466843    -0.21400
C244        C  0.45706764  0.79401330  0.14404514    -0.21400
C245        C  0.64871454  0.72233565  0.94700334    -0.22500
C246        C  0.65432085  0.73037222  0.00450501    -0.22500
C247        C  0.30686406  0.73776632  0.94227463    -0.22500
C248        C  0.31170588  0.72875759  0.99812551    -0.22500
C249        C  0.57752158  0.75138373  0.87427380    -0.17800
C250        C  0.37129574  0.77444680  0.87467645    -0.17800
C251        C  0.38343683  0.75386763  0.07546192    -0.17800
C252        C  0.59129048  0.76882533  0.07936566    -0.17800
H253        H  0.53275005  0.80979693  0.78301462     0.15100
H254        H  0.42166371  0.82275799  0.78299784     0.15100
H255        H  0.54160206  0.81692997  0.17939140     0.15100
H256        H  0.43016217  0.80714443  0.17798273     0.15100
H257        H  0.68026425  0.70373583  0.91995620     0.13400
H258        H  0.69031795  0.71829956  0.03013167     0.13400
H259        H  0.27111566  0.72648787  0.91428511     0.13400
H260        H  0.27965150  0.70957544  0.02117511     0.13400
H261        H  0.47416175  0.73524541  0.92414144     0.26600
H262        H  0.48640409  0.73596303  0.02297970     0.26600
N263        N  0.49581870  0.25116361  0.93587388    -0.36100
N264        N  0.41310506  0.25423726  0.02019010    -0.56700
N265        N  0.50741323  0.25574948  0.10878010    -0.36100
N266        N  0.58933403  0.24083152  0.02257170    -0.56700
C267        C  0.44866407  0.23662726  0.90357658     0.27400
C268        C  0.54175367  0.23787524  0.90541129     0.27400
C269        C  0.46064824  0.25024031  0.13895971     0.27400
C270        C  0.55267779  0.23501991  0.13786495     0.27400
C271        C  0.37785646  0.26176135  0.97470696     0.36100
C272        C  0.38594345  0.27376849  0.06669347     0.36100
C273        C  0.61808373  0.25737422  0.97912562     0.36100
C274        C  0.62486882  0.24783554  0.06840328     0.36100
C275        C  0.46529216  0.21303643  0.85238956    -0.21400
C276        C  0.52374884  0.21405060  0.85345589    -0.21400
C277        C  0.47623691  0.22590417  0.18773750    -0.21400
C278        C  0.53378607  0.21590232  0.18683279    -0.21400
C279        C  0.32783004  0.28582455  0.99248101    -0.22500
C280        C  0.33317115  0.29414599  0.05002118    -0.22500
C281        C  0.67145209  0.27614459  0.99806503    -0.22500
C282        C  0.67607905  0.26899373  0.05420963    -0.22500
C283        C  0.39119596  0.24803459  0.91743631    -0.17800
C284        C  0.59925246  0.25014600  0.92201965    -0.17800
C285        C  0.61095977  0.23628467  0.12308099    -0.17800
C286        C  0.40425183  0.26666286  0.12398292    -0.17800
H287        H  0.43813218  0.19716111  0.81755847     0.15100
H288        H  0.55000454  0.19893112  0.81966434     0.15100
H289        H  0.44890555  0.21526477  0.22030669     0.15100
H290        H  0.55867366  0.19639979  0.21876503     0.15100
H291        H  0.29164295  0.29715640  0.96671225     0.13400
H292        H  0.30113716  0.31239220  0.07674860     0.13400
H293        H  0.70408802  0.29325172  0.97415669     0.13400
H294        H  0.71228607  0.28000556  0.08167998     0.13400
H295        H  0.49727475  0.27491175  0.97396878     0.26600
H296        H  0.50848601  0.27699776  0.07269066     0.26600
C297        C  0.70955486  0.72816252  0.70298764     0.30500
C298        C  0.76563445  0.78608882  0.78930895     0.30500
C299        C  0.76217875  0.69744616  0.72792298    -0.05700
C300        C  0.73454319  0.78562396  0.69158578    -0.06500
C301        C  0.67365468  0.74154957  0.75537732    -0.06400
C302        C  0.79174700  0.72829734  0.77101890    -0.05700
C303        C  0.76364056  0.81578309  0.73416749    -0.06500
C304        C  0.70311672  0.77238758  0.79750679    -0.06400
C305        C  0.84125253  0.69904714  0.78219357    -0.31800
N306        N  0.84068007  0.64918051  0.75091317     0.14700
C307        C  0.79222118  0.64743153  0.71821844    -0.31800
H308        H  0.78073710  0.61277045  0.68845623     0.16700
C309        C  0.78223446  0.86461874  0.71124916    -0.30800
N310        N  0.76361503  0.86389154  0.65646771     0.13400
C311        C  0.73471144  0.81589672  0.64524375    -0.30800
C312        C  0.66896018  0.78112718  0.84224563    -0.31000
N313        N  0.62020067  0.75301043  0.83210894     0.14000
H314        H  0.67941784  0.80514166  0.88108383     0.16600
C315        C  0.62184266  0.72848783  0.77855646    -0.31100
H316        H  0.58884139  0.70207925  0.75848048     0.16600
H317        H  0.71420678  0.80446798  0.60536852     0.16600
H318        H  0.87553051  0.71320193  0.81087082     0.16700
H319        H  0.80696784  0.89810286  0.73281966     0.16600
C320        C  0.79774540  0.20091443  0.24356184     0.30500
C321        C  0.72694993  0.26617812  0.30655778     0.30500
C322        C  0.81277144  0.26412303  0.25334860    -0.05700
C323        C  0.73561812  0.20598568  0.21658294    -0.06500
C324        C  0.78496671  0.18073383  0.30100219    -0.06400
C325        C  0.77781590  0.29729334  0.28612285    -0.05700
C326        C  0.69995371  0.24043226  0.25061300    -0.06500
C327        C  0.75080983  0.21404188  0.33259793    -0.06400
C328        C  0.79724324  0.35219840  0.28570310    -0.31800
N329        N  0.84483347  0.35230575  0.25556881     0.14700
C330        C  0.85296542  0.29879190  0.23384708    -0.31800
H331        H  0.88713510  0.28549150  0.20721513     0.16700
C332        C  0.65410146  0.25624213  0.21839990    -0.30800
N333        N  0.65605433  0.23065178  0.16636800     0.13400
C334        C  0.70698486  0.20215311  0.16379974    -0.30800
C335        C  0.73892350  0.18560049  0.37893257    -0.31000
N336        N  0.76621616  0.13587494  0.37697733     0.14000
H337        H  0.71071574  0.19856727  0.41139503     0.16600
C338        C  0.79403928  0.13160816  0.32849566    -0.31100
H339        H  0.81813263  0.09521611  0.31372030     0.16600
H340        H  0.72322610  0.18204786  0.12590490     0.16600
H341        H  0.77900309  0.38906167  0.30704873     0.16700
H342        H  0.62240650  0.28683564  0.23138910     0.16600
C343        C  0.21431832  0.22301192  0.77475165     0.30500
C344        C  0.28909110  0.29157619  0.73059034     0.30500
C345        C  0.27039031  0.23524211  0.81134654    -0.05700
C346        C  0.23778637  0.20029575  0.71765015    -0.06500
C347        C  0.19223427  0.28230459  0.76319777    -0.06400
C348        C  0.30729077  0.27039562  0.78808515    -0.05700
C349        C  0.27473357  0.23576150  0.69305674    -0.06500
C350        C  0.22892756  0.31619114  0.73923820    -0.06400
C351        C  0.35375833  0.27930523  0.82516367    -0.31800
N352        N  0.34782657  0.25044234  0.87130365     0.14700
C353        C  0.29695297  0.22280194  0.86294738    -0.31800
H354        H  0.28064256  0.19496290  0.89184204     0.16700
C355        C  0.28200080  0.21017422  0.63869379    -0.30800
N356        N  0.25494399  0.15918419  0.63207884     0.13400
C357        C  0.22940992  0.15309787  0.68101389    -0.30800
C358        C  0.19921374  0.36542675  0.72884815    -0.31000
N359        N  0.14589588  0.36363764  0.74876087     0.14000
H360        H  0.21547565  0.39973885  0.70747320     0.16600
C361        C  0.14210902  0.31260401  0.77044188    -0.31100
H362        H  0.10539903  0.29806465  0.79047568     0.16600
H363        H  0.20514060  0.11662711  0.68920083     0.16600
H364        H  0.38993777  0.30516082  0.81857381     0.16700
H365        H  0.30432409  0.22781978  0.60590479     0.16600
C366        C  0.27514401  0.70977658  0.24978937     0.30500
C367        C  0.20328016  0.77105699  0.18782454     0.30500
C368        C  0.21436649  0.68620894  0.23786554    -0.05700
C369        C  0.26034041  0.76958339  0.27837842    -0.06500
C370        C  0.29641778  0.72461644  0.19326821    -0.06400
C371        C  0.17823542  0.71700285  0.20618313    -0.05700
C372        C  0.22300769  0.80100262  0.24548171    -0.06500
C373        C  0.26010834  0.75472496  0.16236862    -0.06400
C374        C  0.12503636  0.69267537  0.20603939    -0.31800
N375        N  0.12853877  0.64589139  0.23473885     0.14700
C376        C  0.18262685  0.64314851  0.25630624    -0.31800
H377        H  0.19822107  0.61135898  0.28278481     0.16700
C378        C  0.20912521  0.84968642  0.27736886    -0.30800
N379        N  0.23699256  0.85088941  0.32810137     0.13400
C380        C  0.26679068  0.80150078  0.32964797    -0.30800
C381        C  0.28901600  0.76975891  0.11681874    -0.31000
N382        N  0.34200506  0.74811915  0.11808312     0.14000
H383        H  0.27329963  0.79560724  0.08495516     0.16600
C384        C  0.34749038  0.72086771  0.16573254    -0.31100
H385        H  0.38581085  0.70040013  0.17983125     0.16600
H386        H  0.28961646  0.78903032  0.36638485     0.16600
H387        H  0.08694403  0.70712373  0.18509892     0.16700
H388        H  0.17928382  0.88143827  0.26524180     0.16600
N389        N  0.07293965  0.90527407  0.98052947    -0.05700
N390        N  0.10447419  0.86136385  0.96612664    -0.57800
N391        N  0.02312919  0.93312626  0.10824593    -0.05300
N392        N  0.00499780  0.93018254  0.15934400    -0.59900
N393        N  0.99477076  0.89749359  0.07385383    -0.04900
N394        N  0.95957808  0.86815114  0.10023849    -0.57800
N395        N  0.10450016  0.94458590  0.00586807    -0.04600
N396        N  0.15781567  0.93066694  0.00331199    -0.60300
C397        C  0.15649808  0.87526517  0.98906541     0.96500
C398        C  0.96553382  0.88886488  0.15342516     0.91700
N399        N  0.02194155  0.10803580  0.12207092    -0.05800
N400        N  0.00117304  0.13706100  0.16451009    -0.58400
N401        N  0.11662168  0.06476898  0.03473121    -0.04000
N402        N  0.16946302  0.06442178  0.02002470    -0.59600
N403        N  0.09111467  0.11048962  0.02062481    -0.05900
N404        N  0.12658211  0.14223737  0.99683300    -0.58600
N405        N  0.04065356  0.05948977  0.13641736    -0.03600
N406        N  0.02873020  0.05278292  0.18852179    -0.59700
Mn407      Mn  0.07343700  0.99968878  0.07367363     1.18400
C408        C  0.00286004  0.10149428  0.20513656     0.98600
C409        C  0.17760817  0.11666235  0.00373944     0.99300
N410        N  0.89380953  0.92236486  0.99709577    -0.05900
N411        N  0.85581991  0.88533562  0.00772674    -0.62200
N412        N  0.95521713  0.97734430  0.88736344    -0.04700
N413        N  0.97701622  0.98595169  0.83889363    -0.62900
N414        N  0.97080481  0.92777067  0.90246001    -0.05400
N415        N  0.99938954  0.90045757  0.86394346    -0.62500
N416        N  0.86927252  0.96781169  0.98142632    -0.04300
N417        N  0.81413511  0.96291828  0.98219354    -0.63200
Mn418      Mn  0.98268243  0.91107885  0.98807684     1.10700
C419        C  0.80571956  0.90879729  0.99245061     0.99800
C420        C  0.00380639  0.93675573  0.82475495     0.99900
N421        N  0.98405517  0.14317013  0.95558630    -0.05400
N422        N  0.00923602  0.18330329  0.93312838    -0.60800
N423        N  0.88184845  0.08662477  0.02294769    -0.04700
N424        N  0.82856391  0.10136139  0.02072412    -0.57500
N425        N  0.91228868  0.12827103  0.04642799    -0.06000
N426        N  0.88099842  0.17418225  0.04899106    -0.60300
N427        N  0.96181980  0.10688219  0.91822997    -0.05000
N428        N  0.97628706  0.12016468  0.86807248    -0.57500
Mn429      Mn  0.00282852  0.12431587  0.03739469     1.20200
Mn430      Mn  0.91517295  0.03563721  0.94982884     1.10100
Cl431      Cl  0.99327112  0.01769862  0.01245373    -0.85500
C432        C  0.00777796  0.16799935  0.87866734     0.96800
C433        C  0.83063186  0.15756726  0.02409047     0.96600
N434        N  0.59496340  0.40445914  0.49255544    -0.05700
N435        N  0.62794704  0.36715900  0.51493819    -0.57800
N436        N  0.55387186  0.46691950  0.37420989    -0.05300
N437        N  0.54777352  0.48998236  0.32599255    -0.59900
N438        N  0.59846497  0.48813870  0.40233387    -0.04900
N439        N  0.62426438  0.52384671  0.37342007    -0.57800
N440        N  0.55228626  0.37944118  0.46549829    -0.04600
N441        N  0.55451431  0.32532821  0.47030551    -0.60300
C442        C  0.60647283  0.31697337  0.49349367     0.96500
C443        C  0.59257414  0.52507324  0.32601201     0.96300
N444        N  0.38296196  0.49157470  0.40319513    -0.05800
N445        N  0.35104289  0.52172122  0.37156987    -0.58400
N446        N  0.42891583  0.38422487  0.46930529    -0.04000
N447        N  0.42377611  0.33089491  0.47676275    -0.59600
N448        N  0.38901311  0.41279428  0.49461082    -0.05900
N449        N  0.35440410  0.37892697  0.51710868    -0.58600
N450        N  0.42354448  0.46715129  0.37496468    -0.03600
N451        N  0.42144745  0.48243151  0.32342880    -0.59700
Mn452      Mn  0.48973396  0.42225123  0.41821861     1.18400
C453        C  0.37581380  0.51672681  0.32224345     0.98600
C454        C  0.37210345  0.32694762  0.49847923     0.99300
N455        N  0.60422326  0.58430834  0.49258346    -0.05900
N456        N  0.64168842  0.61878815  0.47502671    -0.62200
N457        N  0.56469540  0.52967341  0.60866103    -0.04700
N458        N  0.56247984  0.51300984  0.65949327    -0.62900
N459        N  0.60440682  0.50222651  0.58144194    -0.05400
N460        N  0.63090962  0.46774627  0.61315395    -0.62500
N461        N  0.56251494  0.61257123  0.51501736    -0.04300
N462        N  0.56889430  0.66608586  0.50990545    -0.63200
Mn463      Mn  0.60358176  0.49420838  0.49223311     1.10700
C464        C  0.62192879  0.67068830  0.49167801     0.99800
C465        C  0.60412232  0.47433850  0.66138206     0.99900
N466        N  0.39107368  0.51145182  0.58086579    -0.05400
N467        N  0.36257212  0.47966180  0.61156547    -0.60800
N468        N  0.43701501  0.61754935  0.51452743    -0.04700
N469        N  0.43064928  0.67184471  0.51397048    -0.57500
N470        N  0.39359711  0.59172292  0.48941839    -0.06000
N471        N  0.35599730  0.62844830  0.47335777    -0.60300
N472        N  0.43518072  0.53342104  0.60883367    -0.05000
N473        N  0.43847850  0.51477274  0.65925119    -0.57500
Mn474      Mn  0.38655386  0.50217738  0.49191752     1.20200
Mn475      Mn  0.50000640  0.57557038  0.56394555     1.10100
Cl476      Cl  0.49502708  0.49865708  0.49151341    -0.85500
C477        C  0.39218512  0.48176598  0.66032116     0.96800
C478        C  0.37637533  0.67846440  0.49618282     0.96600
C479        C  0.17016871  0.79887231  0.14272885     0.00300
C480        C  0.18639980  0.85438411  0.13837342    -0.11600
C481        C  0.19665375  0.87281772  0.08666103     0.02500
C482        C  0.17432118  0.84351418  0.03731036     0.00200
C483        C  0.15194497  0.79022825  0.04125618    -0.11500
C484        C  0.15312224  0.76613762  0.09217076     0.02400
H485        H  0.20460575  0.87873888  0.17422236     0.15400
H486        H  0.13593372  0.76636194  0.00381062     0.15400
C487        C  0.14774111  0.70573371  0.08765492     0.37100
C488        C  0.23780265  0.91682572  0.08524566     0.37000
N489        N  0.14470050  0.65727835  0.08242528    -0.43300
N490        N  0.27242192  0.95060862  0.08498134    -0.43300
C491        C  0.37361065  0.56583199  0.29081937     0.00300
C492        C  0.38620269  0.61753627  0.32059562    -0.11600
C493        C  0.35713368  0.66643912  0.30840021     0.02500
C494        C  0.31370833  0.66268082  0.26680970     0.00200
C495        C  0.30957586  0.61231893  0.23110803    -0.11500
C496        C  0.33891879  0.56421569  0.24294750     0.02400
H497        H  0.41423660  0.61833621  0.35719715     0.15400
H498        H  0.28111100  0.60986942  0.19453508     0.15400
C499        C  0.32788410  0.51230382  0.20947032     0.37100
C500        C  0.37543155  0.71869156  0.33682675     0.37000
N501        N  0.31934454  0.47054070  0.18296839    -0.43300
N502        N  0.39299296  0.75969280  0.35963024    -0.43300
C503        C  0.33013233  0.33733220  0.71799584     0.00300
C504        C  0.32737509  0.38824387  0.75216410    -0.11600
C505        C  0.35566142  0.43602527  0.73924003     0.02500
C506        C  0.38919032  0.43294822  0.69280429     0.00200
C507        C  0.40112013  0.38017609  0.66573033    -0.11500
C508        C  0.37340781  0.33178796  0.67949831     0.02400
H509        H  0.29984368  0.39179081  0.78723111     0.15400
H510        H  0.42836704  0.37763285  0.63070520     0.15400
C511        C  0.39401237  0.27798350  0.65783192     0.37100
C512        C  0.34444199  0.48895558  0.76991042     0.37000
N513        N  0.41241597  0.23515288  0.64143690    -0.43300
N514        N  0.33546968  0.53148824  0.79425630    -0.43300
C515        C  0.16573495  0.19282033  0.79955776     0.00300
C516        C  0.15811659  0.20985100  0.85569899    -0.11600
C517        C  0.10544479  0.20967162  0.87835948     0.02500
C518        C  0.05999545  0.17975008  0.84955323     0.00200
C519        C  0.06693231  0.15981913  0.79430884    -0.11500
C520        C  0.11680827  0.17152340  0.76762312     0.02400
H521        H  0.19053512  0.23360895  0.87977093     0.15400
H522        H  0.03127612  0.14052307  0.77053068     0.15400
C523        C  0.11105061  0.17069748  0.70772154     0.37100
C524        C  0.09911626  0.24688102  0.92819237     0.37000
N525        N  0.10431493  0.17041954  0.65979792    -0.43300
N526        N  0.09430028  0.27731953  0.96748183    -0.43300
C527        C  0.85143472  0.16796846  0.23031019     0.00300
C528        C  0.89841399  0.18281631  0.26767152    -0.11600
C529        C  0.94626725  0.15004274  0.27176578     0.02500
C530        C  0.95111414  0.10281862  0.23506924     0.00200
C531        C  0.90270774  0.08261765  0.20359119    -0.11500
C532        C  0.85282813  0.11499571  0.20082644     0.02400
H533        H  0.89667656  0.21924501  0.29716096     0.15400
H534        H  0.90673925  0.04532471  0.17574963     0.15400
C535        C  0.80411612  0.09297025  0.16880913     0.37100
C536        C  0.99399813  0.17115629  0.30660170     0.37000
N537        N  0.76497942  0.07478197  0.14339408    -0.43300
N538        N  0.03240187  0.18834755  0.33384240    -0.43300
C539        C  0.64351401  0.28464714  0.45512977     0.00300
C540        C  0.69807008  0.30615521  0.45273746    -0.11600
C541        C  0.72093756  0.31475148  0.40190915     0.02500
C542        C  0.69191871  0.29457520  0.35104354     0.00200
C543        C  0.63851562  0.26970128  0.35455676    -0.11500
C544        C  0.61812855  0.25887516  0.40578872     0.02400
H545        H  0.72030622  0.32221855  0.49094003     0.15400
H546        H  0.61723576  0.24904218  0.31816351     0.15400
C547        C  0.57172314  0.22020934  0.40682119     0.37100
C548        C  0.77809863  0.33600273  0.40542312     0.37000
N549        N  0.53577749  0.18757994  0.40584092    -0.43300
N550        N  0.82397771  0.35279592  0.41045672    -0.43300
C551        C  0.68247600  0.70709264  0.64708576     0.00300
C552        C  0.72028814  0.68314247  0.60754537    -0.11600
C553        C  0.70939316  0.68426307  0.55037009     0.02500
C554        C  0.65811141  0.70655344  0.53081311     0.00200
C555        C  0.62784675  0.74172892  0.56834061    -0.11500
C556        C  0.63494763  0.73702515  0.62557698     0.02400
H557        H  0.76170015  0.66886164  0.62014723     0.15400
H558        H  0.59135339  0.76451853  0.55281224     0.15400
C559        C  0.59875285  0.77267039  0.65982498     0.37100
C560        C  0.75141180  0.66241278  0.51247436     0.37000
N561        N  0.56916932  0.80298612  0.68479151    -0.43300
N562        N  0.78577683  0.64519039  0.48276083    -0.43300
C563        C  0.78545590  0.81747488  0.84324191     0.00300
C564        C  0.76672468  0.87371716  0.84868489    -0.11600
C565        C  0.75565617  0.90037302  0.90025031     0.02500
C566        C  0.77302769  0.87504552  0.94896692     0.00200
C567        C  0.78488997  0.81759590  0.94485780    -0.11500
C568        C  0.79175466  0.78866426  0.89319434     0.02400
H569        H  0.75265559  0.89493185  0.81257262     0.15400
H570        H  0.79392606  0.79645340  0.98259376     0.15400
C571        C  0.79735377  0.72857530  0.89429086     0.37100
C572        C  0.72677999  0.95395618  0.90198333     0.37000
N573        N  0.80097117  0.68055245  0.89717880    -0.43300
N574        N  0.70329346  0.99659882  0.90278188    -0.43300
C575        C  0.81515738  0.20493863  0.85440318     0.00300
C576        C  0.83495406  0.24376524  0.89874099    -0.11600
C577        C  0.83540784  0.23160081  0.95456619     0.02500
C578        C  0.81750334  0.17882546  0.96827470     0.00200
C579        C  0.79984820  0.13943734  0.92412217    -0.11500
C580        C  0.80145031  0.15066403  0.86855012     0.02400
H581        H  0.84323323  0.28690360  0.89159512     0.15400
H582        H  0.78516582  0.09811262  0.93243786     0.15400
C583        C  0.78369077  0.10569755  0.82874125     0.37100
C584        C  0.85079319  0.27545630  0.99702738     0.37000
N585        N  0.77003065  0.06662104  0.80022430    -0.43300
N586        N  0.86286971  0.31079000  0.03089479    -0.43300
C587        C  0.66630925  0.33784211  0.73085513     0.00300
C588        C  0.62894206  0.32868854  0.68484245    -0.11600
C589        C  0.59490413  0.37282568  0.66834555     0.02500
C590        C  0.60219454  0.42700767  0.69518056     0.00200
C591        C  0.63109053  0.43386884  0.74613318    -0.11500
C592        C  0.66227179  0.38959659  0.76511924     0.02400
H593        H  0.62624868  0.28797879  0.66206158     0.15400
H594        H  0.63453593  0.47524956  0.76795781     0.15400
C595        C  0.69129872  0.39983410  0.81908292     0.37100
C596        C  0.55446268  0.36294638  0.62243519     0.37000
N597        N  0.71400484  0.40763505  0.86244955    -0.43300
N598        N  0.52118488  0.35468097  0.58631065    -0.43300
C599        C  0.05470413  0.93059957  0.79299572     0.00300
C600        C  0.04826958  0.89214906  0.74730526    -0.11600
C601        C  0.08970388  0.85223489  0.73557861     0.02500
C602        C  0.14048178  0.85021047  0.77016485     0.00200
C603        C  0.14973340  0.89360270  0.81215511    -0.11500
C604        C  0.10756970  0.93451818  0.82264995     0.02400
H605        H  0.00797380  0.88952161  0.72394755     0.15400
H606        H  0.18971037  0.89640318  0.83568027     0.15400
C607        C  0.11734836  0.97917387  0.86567107     0.37100
C608        C  0.07971970  0.81658676  0.68480548     0.37000
N609        N  0.12441586  0.01600154  0.89923222    -0.43300
N610        N  0.07221654  0.78965877  0.64317133    -0.43300
C611        C  0.28928199  0.70975296  0.64415922     0.00300
C612        C  0.34421491  0.73104772  0.63955586    -0.11600
C613        C  0.36782446  0.73382263  0.58779240     0.02500
C614        C  0.34133463  0.70625719  0.53973031     0.00200
C615        C  0.28626605  0.68642760  0.54324842    -0.11500
C616        C  0.26008630  0.68777020  0.59393947     0.02400
H617        H  0.36537959  0.75377936  0.67492287     0.15400
H618        H  0.26409654  0.66767181  0.50611202     0.15400
C619        C  0.20081263  0.67304054  0.58998602     0.37100
C620        C  0.41856247  0.76676424  0.58459786     0.37000
N621        N  0.15332965  0.66135425  0.58509692    -0.43300
N622        N  0.45898222  0.79322708  0.58156281    -0.43300
C623        C  0.65206084  0.67243896  0.27206735     0.00300
C624        C  0.61660070  0.67571469  0.31725613    -0.11600
C625        C  0.58473449  0.62887027  0.32834781     0.02500
C626        C  0.59228262  0.57696582  0.29736978     0.00200
C627        C  0.62048159  0.57580329  0.24794109    -0.11500
C628        C  0.64810551  0.62353853  0.23352885     0.02400
H629        H  0.61353846  0.71419299  0.34362440     0.15400
H630        H  0.62480497  0.53645572  0.22281271     0.15400
C631        C  0.67448949  0.61934087  0.18008697     0.37100
C632        C  0.54401711  0.63453171  0.37119943     0.37000
N633        N  0.69506043  0.61617007  0.13712363    -0.43300
N634        N  0.50995135  0.63985359  0.40430724    -0.43300
C635        C  0.91570582  0.88678659  0.18718819     0.00300
C636        C  0.91865764  0.85279595  0.23126705    -0.11600
C637        C  0.87019089  0.82591976  0.24638663     0.02500
C638        C  0.81923748  0.82686855  0.21192681     0.00200
C639        C  0.81486944  0.86715392  0.17290174    -0.11500
C640        C  0.86217058  0.89930713  0.16296784     0.02400
H641        H  0.95918938  0.84507162  0.25209813     0.15400
H642        H  0.77484059  0.87465971  0.15142315     0.15400
C643        C  0.85557241  0.94527371  0.12810880     0.37100
C644        C  0.87404626  0.79964056  0.29855294     0.37000
N645        N  0.85021711  0.98341031  0.10162828    -0.43300
N646        N  0.87666028  0.78051666  0.34133475    -0.43300
C647        C  0.29337095  0.30597669  0.34802484     0.00300
C648        C  0.34420823  0.27721569  0.36117063    -0.11600
C649        C  0.35626841  0.26336509  0.41556105     0.02500
C650        C  0.33201328  0.29503450  0.45974223     0.00200
C651        C  0.27968687  0.32021032  0.44881499    -0.11500
C652        C  0.25884980  0.32369085  0.39410174     0.02400
H653        H  0.36751911  0.25497309  0.32849391     0.15400
H654        H  0.25640649  0.33967939  0.48317797     0.15400
C655        C  0.19942757  0.33712364  0.38931455     0.37100
C656        C  0.39372531  0.21748153  0.42675573     0.37000
N657        N  0.15142488  0.34708382  0.38824655    -0.43300
N658        N  0.42141901  0.17931561  0.43701130    -0.43300
C659        C  0.19767091  0.19641662  0.14713954     0.00300
C660        C  0.22199573  0.14239240  0.13778502    -0.11600
C661        C  0.24129343  0.12472731  0.08520337     0.02500
C662        C  0.21986203  0.15025811  0.03836800     0.00200
C663        C  0.20600394  0.20683606  0.04658059    -0.11500
C664        C  0.19183511  0.22953478  0.09941445     0.02400
H665        H  0.23710362  0.11976567  0.17275473     0.15400
H666        H  0.19729150  0.23043735  0.01041796     0.15400
C667        C  0.17947391  0.28881113  0.10193228     0.37100
C668        C  0.28607223  0.08400485  0.07909962     0.37000
N669        N  0.17037162  0.33639664  0.10117008    -0.43300
N670        N  0.32418745  0.05382805  0.07357553    -0.43300
loop_ 
_geom_bond_atom_site_label_1 
_geom_bond_atom_site_label_2 
_geom_bond_distance 
_geom_bond_site_symmetry_2 
_ccdc_geom_bond_type 
C1            C3   1.562       .  S
C1            C5   1.547       .  S
C1            C4   1.550       .  S
C1          C647   1.520       .  S
C2            C6   1.546       .  S
C2            C8   1.552       .  S
C2            C7   1.564       .  S
C2          C659   1.521       .  S
C3           C11   1.417       .  A
C3            C6   1.373       .  A
C4           C15   1.375       .  A
C4            C7   1.377       .  A
C5           C19   1.385       .  A
C5            C8   1.392       .  A
C6            C9   1.377       .  A
C7           C13   1.417       .  A
C8           C16   1.388       .  A
C9           N10   1.340       .  A
C9           H22   1.075       .  S
N10          C11   1.379       .  A
N10         C286   1.468       .  S
C11          H12   1.082       .  S
C13          N14   1.382       .  A
C13          H23   1.082       .  S
N14          C15   1.342       .  A
N14         C101   1.475       .  S
C15          H21   1.073       .  S
C16          N17   1.359       .  A
C16          H18   1.082       .  S
N17          C19   1.359       .  A
N17          C45   1.451       .  S
C19          H20   1.082       .  S
N24          C29   1.359   1_655  A
N24          C28   1.355       .  A
N24          H56   1.042       .  S
N25          C32   1.359       .  A
N25          C33   1.360       .  A
N26          C31   1.364   1_655  A
N26          C30   1.361       .  A
N26          H57   1.042       .  S
N27          C34   1.354       .  A
N27          C35   1.352       .  A
C28          C36   1.389       .  A
C28          C44   1.424       .  A
C29          C45   1.416       .  A
C29          C37   1.383       .  A
C30          C38   1.383       .  A
C30          C47   1.433       .  A
C31          C46   1.425       .  A
C31          C39   1.381       .  A
C32          C44   1.425       .  A
C32          C40   1.384       .  A
C33          C47   1.431       .  A
C33          C41   1.388       .  A
C34          C42   1.382       .  A
C34          C45   1.410       .  A
C35          C43   1.387       .  A
C35          C46   1.415       .  A
C36          C37   1.378   1_655  A
C36          H48   1.081       .  S
C37          H49   1.082       .  S
C38          C39   1.377   1_655  A
C38          H50   1.070       .  S
C39          H51   1.082       .  S
C40          C41   1.381       .  A
C40          H52   1.082       .  S
C41          H53   1.080       .  S
C42          C43   1.372       .  A
C42          H54   1.082       .  S
C43          H55   1.081       .  S
C44         N329   1.459       .  S
C46         N375   1.459       .  S
C47          N67   1.473       .  S
C58          C60   1.546       .  S
C58          C62   1.583       .  S
C58          C61   1.547       .  S
C58         C638   1.525       .  S
C59          C63   1.547       .  S
C59          C65   1.551       .  S
C59          C64   1.585       .  S
C59         C623   1.526       .  S
C60          C68   1.392       .  A
C60          C63   1.367       .  A
C61          C72   1.381       .  A
C61          C64   1.391       .  A
C62          C76   1.424       .  A
C62          C65   1.391       .  A
C63          C66   1.395       .  A
C64          C70   1.425       .  A
C65          C73   1.384       .  A
C66          N67   1.366       .  A
C66          H79   1.082       .  S
N67          C68   1.367       .  A
C68          H69   1.082       .  S
C70          N71   1.384       .  A
C70          H80   1.081       .  S
N71          C72   1.353       .  A
N71         C136   1.480       .  S
C72          H78   1.083       .  S
C73          N74   1.357       .  A
C73          H75   1.083       .  S
N74          C76   1.383       .  A
N74         C252   1.483       .  S
C76          H77   1.081       .  S
N81          C86   1.365   1_545  A
N81          C85   1.359       .  A
N81         H113   1.040       .  S
N82          C89   1.365       .  A
N82          C90   1.373       .  A
N83          C88   1.356   1_545  A
N83          C87   1.362       .  A
N83         H114   1.039       .  S
N84          C91   1.362       .  A
N84          C92   1.358       .  A
C85          C93   1.388       .  A
C85         C101   1.429       .  A
C86         C102   1.433       .  A
C86          C94   1.386       .  A
C87          C95   1.388       .  A
C87         C104   1.430       .  A
C88         C103   1.422       .  A
C88          C96   1.385       .  A
C89         C101   1.455       .  A
C89          C97   1.393       .  A
C90         C104   1.441       .  A
C90          C98   1.381       .  A
C91          C99   1.381       .  A
C91         C102   1.424       .  A
C92         C100   1.388       .  A
C92         C103   1.429       .  A
C93          C94   1.382   1_545  A
C93         H105   1.081       .  S
C94         H106   1.082       .  S
C95          C96   1.380   1_545  A
C95         H107   1.082       .  S
C96         H108   1.082       .  S
C97          C98   1.386       .  A
C97         H109   1.082       .  S
C98         H110   1.082       .  S
C99         C100   1.378       .  A
C99         H111   1.082       .  S
C100        H112   1.082       .  S
C102        N379   1.474       .  S
C103        N162   1.455       .  S
C104        N356   1.484       .  S
N115        C120   1.365       .  A
N115        C119   1.357   1_565  A
N115        H147   1.040       .  S
N116        C123   1.355       .  A
N116        C124   1.361       .  A
N117        C122   1.357   1_545  A
N117        C121   1.363       .  A
N117        H148   1.042       .  S
N118        C125   1.366       .  A
N118        C126   1.359       .  A
C119        C127   1.385       .  A
C119        C135   1.424       .  A
C120        C136   1.435       .  A
C120        C128   1.388       .  A
C121        C129   1.383       .  A
C121        C138   1.427       .  A
C122        C137   1.423       .  A
C122        C130   1.387       .  A
C123        C135   1.429       .  A
C123        C131   1.390       .  A
C124        C138   1.419       .  A
C124        C132   1.381       .  A
C125        C133   1.381       .  A
C125        C136   1.430       .  A
C126        C134   1.392       .  A
C126        C137   1.441       .  A
C127        C128   1.382   1_545  A
C127        H139   1.082       .  S
C128        H140   1.082       .  S
C129        C130   1.381   1_545  A
C129        H141   1.082       .  S
C130        H142   1.082       .  S
C131        C132   1.379       .  A
C131        H143   1.082       .  S
C132        H144   1.082       .  S
C133        C134   1.384       .  A
C133        H145   1.082       .  S
C134        H146   1.082       .  S
C135        N336   1.455       .  S
C137        N310   1.462       .  S
C138        N222   1.469       .  S
C149        C151   1.562       .  S
C149        C153   1.580       .  S
C149        C152   1.539       .  S
C149        C602   1.524       .  S
C150        C154   1.541       .  S
C150        C156   1.559       .  S
C150        C155   1.531       .  S
C150        C611   1.510       .  S
C151        C159   1.394       .  A
C151        C154   1.380       .  A
C152        C163   1.399       .  A
C152        C155   1.353       .  A
C153        C167   1.405       .  A
C153        C156   1.411       .  A
C154        C157   1.395       .  A
C155        C161   1.388       .  A
C156        C164   1.382       .  A
C157        N158   1.363       .  A
C157        H170   1.082       .  S
N158        C159   1.371       .  A
N158        C193   1.473       .  S
C159        H160   1.082       .  S
C161        N162   1.351       .  A
C161        H171   1.079       .  S
N162        C163   1.361       .  A
C163        H169   1.082       .  S
C164        N165   1.362       .  A
C164        H166   1.082       .  S
N165        C167   1.377       .  A
N165        C250   1.471       .  S
C167        H168   1.082       .  S
N172        C177   1.368       .  A
N172        C176   1.368       .  A
N172        H204   1.041       .  S
N173        C180   1.362   1_655  A
N173        C181   1.363       .  A
N174        C179   1.360       .  A
N174        C178   1.357       .  A
N174        H205   1.041       .  S
N175        C182   1.357   1_655  A
N175        C183   1.360       .  A
C176        C184   1.389       .  A
C176        C192   1.445       .  A
C177        C193   1.441       .  A
C177        C185   1.385       .  A
C178        C186   1.387       .  A
C178        C195   1.425       .  A
C179        C194   1.418       .  A
C179        C187   1.382       .  A
C180        C192   1.437       .  A
C180        C188   1.389       .  A
C181        C195   1.429       .  A
C181        C189   1.383       .  A
C182        C190   1.386       .  A
C182        C193   1.427       .  A
C183        C191   1.380       .  A
C183        C194   1.417       .  A
C184        C185   1.386       .  A
C184        H196   1.081       .  S
C185        H197   1.082       .  S
C186        C187   1.379       .  A
C186        H198   1.078       .  S
C187        H199   1.082       .  S
C188        C189   1.379   1_455  A
C188        H200   1.082       .  S
C189        H201   1.082       .  S
C190        C191   1.372   1_455  A
C190        H202   1.075       .  S
C191        H203   1.082       .  S
C192        N359   1.481       .  S
C194        N306   1.458       .  S
C195        N215   1.465       .  S
C206        C208   1.545       .  S
C206        C210   1.576       .  S
C206        C209   1.525       .  S
C206        C587   1.508       .  S
C207        C211   1.546       .  S
C207        C213   1.566       .  S
C207        C212   1.544       .  S
C207        C575   1.520       .  S
C208        C216   1.389       .  A
C208        C211   1.372       .  A
C209        C220   1.391       .  A
C209        C212   1.357       .  A
C210        C224   1.401       .  A
C210        C213   1.416       .  A
C211        C214   1.396       .  A
C212        C218   1.390       .  A
C213        C221   1.386       .  A
C214        N215   1.364       .  A
C214        H227   1.082       .  S
N215        C216   1.363       .  A
C216        H217   1.083       .  S
C218        N219   1.358       .  A
C218        H228   1.077       .  S
N219        C220   1.357       .  A
N219        C284   1.457       .  S
C220        H226   1.083       .  S
C221        N222   1.362       .  A
C221        H223   1.080       .  S
N222        C224   1.372       .  A
C224        H225   1.081       .  S
N229        C234   1.363       .  A
N229        C233   1.356       .  A
N229        H261   1.045       .  S
N230        C237   1.360       .  A
N230        C238   1.367   1_556  A
N231        C236   1.359       .  A
N231        C235   1.366       .  A
N231        H262   1.044       .  S
N232        C239   1.363       .  A
N232        C240   1.357   1_556  A
C233        C241   1.384       .  A
C233        C249   1.422       .  A
C234        C250   1.428       .  A
C234        C242   1.385       .  A
C235        C243   1.388       .  A
C235        C252   1.438       .  A
C236        C251   1.429       .  A
C236        C244   1.386       .  A
C237        C249   1.442       .  A
C237        C245   1.391       .  A
C238        C252   1.432       .  A
C238        C246   1.382       .  A
C239        C247   1.380       .  A
C239        C250   1.422       .  A
C240        C248   1.391   1_554  A
C240        C251   1.433       .  A
C241        C242   1.380       .  A
C241        H253   1.078       .  S
C242        H254   1.082       .  S
C243        C244   1.383       .  A
C243        H255   1.082       .  S
C244        H256   1.082       .  S
C245        C246   1.384   1_556  A
C245        H257   1.081       .  S
C246        H258   1.082       .  S
C247        C248   1.378       .  A
C247        H259   1.082       .  S
C248        H260   1.082   1_556  S
C249        N313   1.463       .  S
C251        N382   1.461       .  S
N263        C268   1.357       .  A
N263        C267   1.365       .  A
N263        H295   1.041       .  S
N264        C271   1.372   1_554  A
N264        C272   1.363       .  A
N265        C270   1.367       .  A
N265        C269   1.360       .  A
N265        H296   1.041       .  S
N266        C273   1.355   1_554  A
N266        C274   1.361       .  A
C267        C275   1.386       .  A
C267        C283   1.432       .  A
C268        C284   1.428       .  A
C268        C276   1.386       .  A
C269        C277   1.386       .  A
C269        C286   1.428       .  A
C270        C285   1.438       .  A
C270        C278   1.388       .  A
C271        C283   1.440       .  A
C271        C279   1.381       .  A
C272        C286   1.451       .  A
C272        C280   1.392       .  A
C273        C281   1.390       .  A
C273        C284   1.426       .  A
C274        C282   1.381       .  A
C274        C285   1.417       .  A
C275        C276   1.382       .  A
C275        H287   1.082       .  S
C276        H288   1.082       .  S
C277        C278   1.381       .  A
C277        H289   1.082       .  S
C278        H290   1.082       .  S
C279        C280   1.385   1_556  A
C279        H291   1.082       .  S
C280        H292   1.082       .  S
C281        C282   1.375   1_556  A
C281        H293   1.081       .  S
C282        H294   1.082       .  S
C283        N352   1.486       .  S
C285        N333   1.474       .  S
C297        C299   1.564       .  S
C297        C301   1.560       .  S
C297        C300   1.547       .  S
C297        C551   1.519       .  S
C298        C302   1.550       .  S
C298        C304   1.540       .  S
C298        C303   1.552       .  S
C298        C563   1.509       .  S
C299        C307   1.396       .  A
C299        C302   1.393       .  A
C300        C311   1.376       .  A
C300        C303   1.372       .  A
C301        C315   1.413       .  A
C301        C304   1.376       .  A
C302        C305   1.388       .  A
C303        C309   1.409       .  A
C304        C312   1.375       .  A
C305        N306   1.361       .  A
C305        H318   1.082       .  S
N306        C307   1.363       .  A
C307        H308   1.082       .  S
C309        N310   1.373       .  A
C309        H319   1.082       .  S
N310        C311   1.343       .  A
C311        H317   1.075       .  S
C312        N313   1.343       .  A
C312        H314   1.080       .  S
N313        C315   1.377       .  A
C315        H316   1.082       .  S
C320        C322   1.553       .  S
C320        C324   1.541       .  S
C320        C323   1.590       .  S
C320        C527   1.522       .  S
C321        C325   1.535       .  S
C321        C327   1.532       .  S
C321        C326   1.553       .  S
C321        C542   1.499       .  S
C322        C330   1.384       .  A
C322        C325   1.372       .  A
C323        C334   1.413       .  A
C323        C326   1.416       .  A
C324        C338   1.403       .  A
C324        C327   1.347       .  A
C325        C328   1.394       .  A
C326        C332   1.376       .  A
C327        C335   1.389       .  A
C328        N329   1.363       .  A
C328        H341   1.082       .  S
N329        C330   1.360       .  A
C330        H331   1.083       .  S
C332        N333   1.354       .  A
C332        H342   1.082       .  S
N333        C334   1.381       .  A
C334        H340   1.082       .  S
C335        N336   1.348       .  A
C335        H337   1.074       .  S
N336        C338   1.360       .  A
C338        H339   1.082       .  S
C343        C345   1.579       .  S
C343        C347   1.549       .  S
C343        C346   1.561       .  S
C343        C515   1.526       .  S
C344        C348   1.554       .  S
C344        C350   1.552       .  S
C344        C349   1.584       .  S
C344        C503   1.522       .  S
C345        C353   1.421       .  A
C345        C348   1.379       .  A
C346        C357   1.388       .  A
C346        C349   1.400       .  A
C347        C361   1.395       .  A
C347        C350   1.365       .  A
C348        C351   1.395       .  A
C349        C355   1.418       .  A
C350        C358   1.401       .  A
C351        N352   1.364       .  A
C351        H364   1.082       .  S
N352        C353   1.376       .  A
C353        H354   1.082       .  S
C355        N356   1.376       .  A
C355        H365   1.080       .  S
N356        C357   1.363       .  A
C357        H363   1.082       .  S
C358        N359   1.369       .  A
C358        H360   1.082       .  S
N359        C361   1.368       .  A
C361        H362   1.082       .  S
C366        C368   1.555       .  S
C366        C370   1.537       .  S
C366        C369   1.582       .  S
C366        C494   1.515       .  S
C367        C371   1.528       .  S
C367        C373   1.535       .  S
C367        C372   1.568       .  S
C367        C479   1.507       .  S
C368        C376   1.388       .  A
C368        C371   1.371       .  A
C369        C380   1.404       .  A
C369        C372   1.414       .  A
C370        C384   1.400       .  A
C370        C373   1.354       .  A
C371        C374   1.389       .  A
C372        C378   1.390       .  A
C373        C381   1.387       .  A
C374        N375   1.359       .  A
C374        H387   1.082       .  S
N375        C376   1.364       .  A
C376        H377   1.083       .  S
C378        N379   1.363       .  A
C378        H388   1.082       .  S
N379        C380   1.374       .  A
C380        H386   1.078       .  S
C381        N382   1.353       .  A
C381        H383   1.075       .  S
N382        C384   1.363       .  A
C384        H385   1.082       .  S
N389        N390   1.317       .  A
N389        N395   1.303   1_556  A
N389       Mn418   2.152   1_455  S
N390        C397   1.361       .  A
N391        N393   1.310   1_455  A
N391        N392   1.326       .  A
N391       Mn407   2.224       .  S
N392        C398   1.359   1_455  A
N393        N394   1.306       .  A
N393       Mn418   2.123   1_554  S
N394        C398   1.340       .  A
N395        N396   1.305       .  A
N395       Mn407   2.167       .  S
N396        C397   1.343   1_554  A
C397        C482   1.482   1_556  S
C398        C635   1.461       .  S
N399        N405   1.306       .  A
N399        N400   1.302       .  A
N399       Mn429   2.135       .  S
N400        C408   1.344       .  A
N401        N402   1.312       .  A
N401        N403   1.306       .  A
N401       Mn407   2.159   1_545  S
N402        C409   1.354       .  A
N403        N404   1.312   1_554  A
N403       Mn429   2.161       .  S
N404        C409   1.359   1_556  A
N405        N406   1.319       .  A
N405       Mn407   2.163   1_545  S
N406        C408   1.353       .  A
Mn407      Cl431   2.412   1_465  S
C408        C530   1.444   1_455  S
C409        C662   1.476       .  S
N410        N411   1.311   1_556  A
N410        N416   1.303       .  A
N410       Mn418   2.135       .  S
N411        C419   1.357   1_554  A
N412        N414   1.312       .  A
N412        N413   1.325       .  A
N412       Mn430   2.209   1_565  S
N413        C420   1.359   1_655  A
N414        N415   1.302       .  A
N414       Mn418   2.137       .  S
N415        C420   1.337   1_655  A
N416        N417   1.311       .  A
N416       Mn430   2.159   1_565  S
N417        C419   1.353       .  A
Mn418      Cl431   2.583   1_566  S
C419        C566   1.469       .  S
C420        C599   1.452       .  S
N421        N422   1.296   1_655  A
N421        N427   1.299       .  A
N421       Mn429   2.084   1_656  S
N422        C432   1.333       .  A
N423        N424   1.307       .  A
N423        N425   1.311       .  A
N423       Mn430   2.231   1_554  S
N424        C433   1.341       .  A
N425        N426   1.319       .  A
N425       Mn429   2.162   1_655  S
N426        C433   1.360       .  A
N427        N428   1.330       .  A
N427       Mn430   2.233       .  S
N428        C432   1.370   1_655  A
Mn429      Cl431   2.583   1_455  S
Mn430      Cl431   2.395   1_556  S
C432        C518   1.483       .  S
C433        C578   1.493   1_554  S
N434        N435   1.314       .  A
N434        N440   1.302       .  A
N434       Mn463   2.157       .  S
N435        C442   1.362       .  A
N436        N438   1.313       .  A
N436        N437   1.325       .  A
N436       Mn452   2.210       .  S
N437        C443   1.355       .  A
N438        N439   1.310       .  A
N438       Mn463   2.157       .  S
N439        C443   1.342       .  A
N440        N441   1.308       .  A
N440       Mn452   2.135       .  S
N441        C442   1.349       .  A
C442        C539   1.471       .  S
C443        C626   1.465       .  S
N444        N450   1.307       .  A
N444        N445   1.304       .  A
N444       Mn474   2.130       .  S
N445        C453   1.342       .  A
N446        N447   1.308       .  A
N446        N448   1.305       .  A
N446       Mn452   2.176       .  S
N447        C454   1.355       .  A
N448        N449   1.315       .  A
N448       Mn474   2.143       .  S
N449        C454   1.358       .  A
N450        N451   1.319       .  A
N450       Mn452   2.170       .  S
N451        C453   1.352       .  A
Mn452      Cl476   2.441       .  S
C453        C491   1.444       .  S
C454        C650   1.477       .  S
N455        N456   1.317       .  A
N455        N461   1.304       .  A
N455       Mn463   2.154       .  S
N456        C464   1.360       .  A
N457        N459   1.311       .  A
N457        N458   1.319       .  A
N457       Mn475   2.175       .  S
N458        C465   1.349       .  A
N459        N460   1.307       .  A
N459       Mn463   2.141       .  S
N460        C465   1.343       .  A
N461        N462   1.305       .  A
N461       Mn475   2.161       .  S
N462        C464   1.353       .  A
Mn463      Cl476   2.568       .  S
C464        C554   1.475       .  S
C465        C590   1.445       .  S
N466        N467   1.308       .  A
N466        N472   1.309       .  A
N466       Mn474   2.135       .  S
N467        C477   1.340       .  A
N468        N469   1.307       .  A
N468        N470   1.305       .  A
N468       Mn475   2.160       .  S
N469        C478   1.349       .  A
N470        N471   1.314       .  A
N470       Mn474   2.154       .  S
N471        C478   1.360       .  A
N472        N473   1.324       .  A
N472       Mn475   2.203       .  S
N473        C477   1.356       .  A
Mn474      Cl476   2.566       .  S
Mn475      Cl476   2.436       .  S
C477        C506   1.457       .  S
C478        C614   1.478       .  S
C479        C480   1.397       .  A
C479        C484   1.441       .  A
C480        C481   1.383       .  A
C480        H485   1.080       .  S
C481        C482   1.417       .  A
C481        C488   1.441       .  S
C482        C483   1.394       .  A
C483        C484   1.393       .  A
C483        H486   1.086       .  S
C484        C487   1.446       .  S
C487        N489   1.158       .  T
C488        N490   1.154       .  T
C491        C492   1.408       .  A
C491        C496   1.386       .  A
C492        C493   1.397       .  A
C492        H497   1.080       .  S
C493        C494   1.404       .  A
C493        C500   1.438       .  S
C494        C495   1.427       .  A
C495        C496   1.382       .  A
C495        H498   1.085       .  S
C496        C499   1.447       .  S
C499        N501   1.157       .  T
C500        N502   1.157       .  T
C503        C504   1.419       .  A
C503        C508   1.407       .  A
C504        C505   1.389       .  A
C504        H509   1.085       .  S
C505        C506   1.393       .  A
C505        C512   1.444       .  S
C506        C507   1.408       .  A
C507        C508   1.401       .  A
C507        H510   1.079       .  S
C508        C511   1.440       .  S
C511        N513   1.158       .  T
C512        N514   1.157       .  T
C515        C516   1.400       .  A
C515        C520   1.437       .  A
C516        C517   1.380       .  A
C516        H521   1.080       .  S
C517        C518   1.422       .  A
C517        C524   1.450       .  S
C518        C519   1.394       .  A
C519        C520   1.405       .  A
C519        H522   1.085       .  S
C520        C523   1.442       .  S
C523        N525   1.158       .  T
C524        N526   1.158       .  T
C527        C528   1.430       .  A
C527        C532   1.405       .  A
C528        C529   1.377       .  A
C528        H533   1.083       .  S
C529        C530   1.387       .  A
C529        C536   1.449       .  S
C530        C531   1.414       .  A
C531        C532   1.409       .  A
C531        H534   1.080       .  S
C532        C535   1.440       .  S
C535        N537   1.157       .  T
C536        N538   1.157   1_655  T
C539        C540   1.397       .  A
C539        C544   1.410       .  A
C540        C541   1.387       .  A
C540        H545   1.086       .  S
C541        C542   1.432       .  A
C541        C548   1.444       .  S
C542        C543   1.407       .  A
C543        C544   1.385       .  A
C543        H546   1.080       .  S
C544        C547   1.441       .  S
C547        N549   1.156       .  T
C548        N550   1.158       .  T
C551        C552   1.419       .  A
C551        C556   1.430       .  A
C552        C553   1.393       .  A
C552        H557   1.075       .  S
C553        C554   1.400       .  A
C553        C560   1.444       .  S
C554        C555   1.402       .  A
C555        C556   1.395       .  A
C555        H558   1.087       .  S
C556        C559   1.442       .  S
C559        N561   1.156       .  T
C560        N562   1.157       .  T
C563        C564   1.411       .  A
C563        C568   1.433       .  A
C564        C565   1.385       .  A
C564        H569   1.080       .  S
C565        C566   1.407       .  A
C565        C572   1.447       .  S
C566        C567   1.397       .  A
C567        C568   1.391       .  A
C567        H570   1.086       .  S
C568        C571   1.444       .  S
C571        N573   1.158       .  T
C572        N574   1.157       .  T
C575        C576   1.426       .  A
C575        C580   1.409       .  A
C576        C577   1.396       .  A
C576        H581   1.079       .  S
C577        C578   1.401       .  A
C577        C584   1.445       .  S
C578        C579   1.417       .  A
C579        C580   1.387       .  A
C579        H582   1.085       .  S
C580        C583   1.438       .  S
C583        N585   1.156       .  T
C584        N586   1.157   1_556  T
C587        C588   1.394       .  A
C587        C592   1.439       .  A
C588        C589   1.396       .  A
C588        H593   1.081       .  S
C589        C590   1.411       .  A
C589        C596   1.439       .  S
C590        C591   1.379       .  A
C591        C592   1.382       .  A
C591        H594   1.086       .  S
C592        C595   1.450       .  S
C595        N597   1.158       .  T
C596        N598   1.156       .  T
C599        C600   1.383       .  A
C599        C604   1.415       .  A
C600        C601   1.386       .  A
C600        H605   1.087       .  S
C601        C602   1.436       .  A
C601        C608   1.448       .  S
C602        C603   1.404       .  A
C603        C604   1.409       .  A
C603        H606   1.082       .  S
C604        C607   1.443       .  S
C607        N609   1.157   1_565  T
C608        N610   1.157       .  T
C611        C612   1.410       .  A
C611        C616   1.434       .  A
C612        C613   1.392       .  A
C612        H617   1.081       .  S
C613        C614   1.413       .  A
C613        C620   1.447       .  S
C614        C615   1.397       .  A
C615        C616   1.389       .  A
C615        H618   1.086       .  S
C616        C619   1.445       .  S
C619        N621   1.158       .  T
C620        N622   1.157       .  T
C623        C624   1.397       .  A
C623        C628   1.437       .  A
C624        C625   1.402       .  A
C624        H629   1.081       .  S
C625        C626   1.412       .  A
C625        C632   1.438       .  S
C626        C627   1.386       .  A
C627        C628   1.392       .  A
C627        H630   1.086       .  S
C628        C631   1.449       .  S
C631        N633   1.158       .  T
C632        N634   1.156       .  T
C635        C636   1.385       .  A
C635        C640   1.413       .  A
C636        C637   1.392       .  A
C636        H641   1.085       .  S
C637        C638   1.437       .  A
C637        C644   1.446       .  S
C638        C639   1.397       .  A
C639        C640   1.400       .  A
C639        H642   1.081       .  S
C640        C643   1.437       .  S
C643        N645   1.155       .  T
C644        N646   1.158       .  T
C647        C648   1.418       .  A
C647        C652   1.440       .  A
C648        C649   1.393       .  A
C648        H653   1.083       .  S
C649        C650   1.398       .  A
C649        C656   1.441       .  S
C650        C651   1.397       .  A
C651        C652   1.396       .  A
C651        H654   1.086       .  S
C652        C655   1.442       .  S
C655        N657   1.158       .  T
C656        N658   1.156       .  T
C659        C660   1.417       .  A
C659        C664   1.446       .  A
C660        C661   1.397       .  A
C660        H665   1.083       .  S
C661        C662   1.399       .  A
C661        C668   1.438       .  S
C662        C663   1.391       .  A
C663        C664   1.397       .  A
C663        H666   1.086       .  S
C664        C667   1.443       .  S
C667        N669   1.158       .  T
C668        N670   1.157       .  T
