geometry optimzed in LAMMPS
_audit_creation_date              2020-12-01 
_audit_creation_method            'lammps2cif' 
_symmetry_space_group_name_H-M    'P1' 
_symmetry_Int_Tables_number       1 
_symmetry_cell_setting            triclinic 
loop_ 
_symmetry_equiv_pos_as_xyz 
  x,y,z 
_cell_length_a                    35.92899116 
_cell_length_b                    35.95567035257409 
_cell_length_c                    30.55170673735469 
_cell_angle_alpha                 89.4210443589327 
_cell_angle_beta                  90.12756517321783 
_cell_angle_gamma                 90.00338026845519 
loop_ 
_atom_site_label 
_atom_site_type_symbol 
_atom_site_fract_x 
_atom_site_fract_y 
_atom_site_fract_z 
_atom_site_charge 
O1          O  0.39835323  0.60411768  0.03757292    -0.71300
O2          O  0.39872059  0.70687232  0.00171783    -0.71300
O3          O  0.34535575  0.65601784  0.02097526    -0.71400
O4          O  0.45171542  0.65503228  0.01874605    -0.71400
O5          O  0.45074378  0.63785173  0.11539199    -0.71400
O6          O  0.34396503  0.63885511  0.11761707    -0.71300
O7          O  0.39751537  0.68959429  0.09845325    -0.71300
O8          O  0.39714767  0.58726623  0.13412230    -0.71400
Ni9        Ni  0.39859163  0.65613759  0.02225330     1.25400
Ni10       Ni  0.39729094  0.63781593  0.11388018     1.25400
C11         C  0.39766467  0.57892554  0.17489426     0.90900
C12         C  0.39815934  0.71493789  0.12748995     0.90800
C13         C  0.32727669  0.64746249  0.15307719     0.90900
C14         C  0.46859651  0.64610521  0.15026050     0.91000
O15         O  0.39722738  0.93429129  0.01050670    -0.71300
O16         O  0.39803995  0.83159561  0.04662099    -0.71300
O17         O  0.34445012  0.88247934  0.02830211    -0.71400
O18         O  0.45080993  0.88335935  0.02838134    -0.71400
O19         O  0.45115561  0.90065828  0.09835917    -0.71400
O20         O  0.34436951  0.89975396  0.09828917    -0.71300
O21         O  0.39816241  0.84899456  0.11652825    -0.71300
O22         O  0.39733971  0.95123499  0.08058105    -0.71400
Ni23       Ni  0.39764026  0.88229515  0.02595484     1.25400
Ni24       Ni  0.39775318  0.90073896  0.10095510     1.25400
C25         C  0.39717499  0.95950499  0.03979031     0.90900
C26         C  0.39818280  0.82359265  0.08755562     0.90800
C27         C  0.32703968  0.89107952  0.06319110     0.90900
C28         C  0.46834971  0.89236894  0.06314267     0.91000
O29         O  0.14507674  0.60284496  0.10244540    -0.71300
O30         O  0.14280143  0.70592955  0.13350298    -0.71300
O31         O  0.19704614  0.65526907  0.11916799    -0.71400
O32         O  0.09074970  0.65356494  0.11639785    -0.71400
O33         O  0.08940262  0.63754206  0.02043667    -0.71400
O34         O  0.19621599  0.63920291  0.02326558    -0.71300
O35         O  0.14174592  0.68982532  0.03750326    -0.71300
O36         O  0.14396607  0.58703462  0.00660442    -0.71400
Ni37       Ni  0.14392873  0.65498381  0.11535947     1.25400
Ni38       Ni  0.14278236  0.63785533  0.02451983     1.25400
C39         C  0.14503887  0.57814365  0.13288598     0.90900
C40         C  0.14201629  0.71464692  0.00725611     0.90800
C41         C  0.21402587  0.64734904  0.98821021     0.90900
C42         C  0.07273891  0.64520817  0.98438838     0.91000
O43         O  0.14470213  0.93489179  0.11485652    -0.71300
O44         O  0.14269991  0.83209064  0.08257967    -0.71300
O45         O  0.19682796  0.88275424  0.09781640    -0.71400
O46         O  0.09050651  0.88419980  0.09997252    -0.71400
O47         O  0.08915608  0.90084347  0.02938628    -0.71400
O48         O  0.19593336  0.89935284  0.19392843    -0.71300
O49         O  0.14158863  0.84874978  0.17875106    -0.71300
O50         O  0.14358265  0.95129724  0.04420359    -0.71400
Ni51       Ni  0.14369741  0.88287560  0.10131770     1.25400
Ni52       Ni  0.14252403  0.90064591  0.02564984     1.25400
C53         C  0.14459396  0.95984025  0.08470151     0.90900
C54         C  0.14190183  0.82371527  0.04198160     0.90800
C55         C  0.21375212  0.89100515  0.06228247     0.90900
C56         C  0.07246723  0.89288419  0.06524133     0.91000
O57         O  0.43688284  0.39639039  0.14165777    -0.71300
O58         O  0.33468566  0.39742132  0.01145539    -0.71300
O59         O  0.38643161  0.45009913  0.99314723    -0.71400
O60         O  0.38502062  0.34378193  0.99284764    -0.71400
O61         O  0.40324332  0.34269833  0.06275070    -0.71400
O62         O  0.40465666  0.44957237  0.06304848    -0.71300
O63         O  0.35298031  0.39659219  0.08130928    -0.71300
O64         O  0.45481510  0.39559756  0.04496678    -0.71400
Ni65       Ni  0.38509251  0.39697796  0.99063856     1.25400
Ni66       Ni  0.40454669  0.39608605  0.06554380     1.25400
C67         C  0.46248861  0.39573737  0.00412704     0.90900
C68         C  0.32721184  0.39713882  0.05240063     0.90800
C69         C  0.39586897  0.46722744  0.02791539     0.90900
C70         C  0.39401789  0.32585646  0.02761659     0.91000
O71         O  0.10638100  0.39416313  0.16266801    -0.71300
O72         O  0.20973520  0.39585633  0.13084628    -0.71300
O73         O  0.15762831  0.44814880  0.14853621    -0.71400
O74         O  0.15847970  0.34189233  0.14539270    -0.71400
O75         O  0.14256334  0.34385850  0.07472602    -0.71400
O76         O  0.14166405  0.45047696  0.07789768    -0.71300
O77         O  0.19365371  0.39801730  0.06026063    -0.71300
O78         O  0.09077048  0.39629044  0.09193018    -0.71400
Ni79       Ni  0.15865244  0.39495447  0.14939643     1.25400
Ni80       Ni  0.14163830  0.39723533  0.07366224     1.25400
C81         C  0.08173800  0.39495983  0.13235266     0.90900
C82         C  0.21849353  0.39712556  0.09026457     0.90800
C83         C  0.14924589  0.46665211  0.11395075     0.90900
C84         C  0.15051880  0.32552648  0.10963384     0.91000
O85         O  0.43743290  0.14155379  0.07427167    -0.71300
O86         O  0.33460371  0.14062173  0.04022855    -0.71300
O87         O  0.38678889  0.08793525  0.05640499    -0.71400
O88         O  0.38519539  0.19423197  0.05850631    -0.71400
O89         O  0.40199056  0.19612691  0.15489761    -0.71400
O90         O  0.40352004  0.08931393  0.15274975    -0.71300
O91         O  0.35144368  0.14233943  0.13666240    -0.71300
O92         O  0.45392170  0.14318737  0.17053158    -0.71400
Ni93       Ni  0.38539372  0.14100683  0.05985067     1.25400
Ni94       Ni  0.40328561  0.14280679  0.15116363     1.25400
C95         C  0.46241787  0.14267753  0.04451554     0.90900
C96         C  0.32631767  0.14129167  0.16619170     0.90800
C97         C  0.39548147  0.07124456  0.02112209     0.90900
C98         C  0.39353913  0.21256400  0.02384108     0.91000
O99         O  0.10624170  0.14370633  0.05435761    -0.71300
O100        O  0.20911107  0.14184019  0.08816280    -0.71300
O101        O  0.15714030  0.08962216  0.06970448    -0.71400
O102        O  0.15823760  0.19587408  0.07250209    -0.71400
O103        O  0.14158465  0.19411937  0.14285713    -0.71400
O104        O  0.14044041  0.08748743  0.14003170    -0.71300
O105        O  0.19236898  0.13987320  0.99173662    -0.71300
O106        O  0.08982819  0.14178640  0.12477232    -0.71400
Ni107      Ni  0.15829448  0.14280544  0.06866917     1.25400
Ni108      Ni  0.14049057  0.14074617  0.14407227     1.25400
C109        C  0.08127948  0.14308055  0.08415275     0.90900
C110        C  0.21746049  0.14070549  0.12889167     0.90800
C111        C  0.14839291  0.07121577  0.10418929     0.90900
C112        C  0.15001312  0.21234521  0.10806822     0.91000
O113        O  0.64603183  0.43474889  0.03127028    -0.71300
O114        O  0.64441188  0.33201704  0.16447224    -0.71300
O115        O  0.69837772  0.38287684  0.17986120    -0.71400
O116        O  0.59205145  0.38380368  0.01635540    -0.71400
O117        O  0.59013556  0.40106864  0.11267023    -0.71400
O118        O  0.69697392  0.40007689  0.10945915    -0.71300
O119        O  0.64274277  0.34933442  0.09415037    -0.71300
O120        O  0.64443510  0.45166222  0.12749358    -0.71400
Ni121      Ni  0.64526148  0.38274848  0.01714820     1.25400
Ni122      Ni  0.64350781  0.40111350  0.10840420     1.25400
C123        C  0.64558638  0.45994984  0.16806952     0.90900
C124        C  0.64342005  0.32396048  0.12375876     0.90800
C125        C  0.71505185  0.39142818  0.14425957     0.90900
C126        C  0.57373052  0.39281130  0.14862812     0.91000
O127        O  0.64519883  0.10447096  0.01229589    -0.71300
O128        O  0.64396059  0.20718547  0.04583481    -0.71300
O129        O  0.69774992  0.15647937  0.02900626    -0.71400
O130        O  0.59142393  0.15518290  0.02868152    -0.71400
O131        O  0.59120318  0.13793810  0.09909032    -0.71400
O132        O  0.69795847  0.13927542  0.09943063    -0.71300
O133        O  0.64395826  0.18986015  0.11617870    -0.71300
O134        O  0.64522155  0.08755456  0.08278107    -0.71400
Ni135      Ni  0.64457201  0.15646805  0.02644353     1.25400
Ni136      Ni  0.64459516  0.13808536  0.10190454     1.25400
C137        C  0.64540596  0.07926737  0.04218854     0.90900
C138        C  0.64376833  0.21523610  0.08656371     0.90800
C139        C  0.71521572  0.14792256  0.06416370     0.90900
C140        C  0.57395570  0.14612801  0.06359561     0.91000
O141        O  0.89901603  0.43547490  0.09517344    -0.71300
O142        O  0.89994847  0.33247282  0.12907226    -0.71300
O143        O  0.84628912  0.38330730  0.11093629    -0.71400
O144        O  0.95270160  0.38457423  0.11300723    -0.71400
O145        O  0.95204778  0.40073207  0.01666616    -0.71400
O146        O  0.84524768  0.39954572  0.01459196    -0.71300
O147        O  0.89903225  0.34873421  0.03265377    -0.71300
O148        O  0.89818453  0.45140308  0.99894968    -0.71400
Ni149      Ni  0.89954054  0.38336889  0.10953283     1.25400
Ni150      Ni  0.89859492  0.40065495  0.01825523     1.25400
C151        C  0.89830993  0.46021605  0.12496275     0.90900
C152        C  0.89962861  0.32386021  0.00307413     0.90800
C153        C  0.82838712  0.39136824  0.14567562     0.90900
C154        C  0.96975388  0.39293378  0.14834150     0.91000
O155        O  0.89806869  0.10367484  0.11597454    -0.71300
O156        O  0.89959134  0.20649885  0.08138609    -0.71300
O157        O  0.84570960  0.15579023  0.09821484    -0.71400
O158        O  0.95202378  0.15444894  0.09946926    -0.71400
O159        O  0.95267310  0.13787328  0.02924252    -0.71400
O160        O  0.84590645  0.13919918  0.02798499    -0.71300
O161        O  0.90000294  0.18989549  0.17793258    -0.71300
O162        O  0.89849810  0.08735358  0.04567374    -0.71400
Ni163      Ni  0.89886065  0.15570477  0.10126491     1.25400
Ni164      Ni  0.89928819  0.13800526  0.02598008     1.25400
C165        C  0.89792630  0.07876669  0.08636726     0.90900
C166        C  0.89993247  0.21489704  0.04059195     0.90800
C167        C  0.82844850  0.14760466  0.06299446     0.90900
C168        C  0.96970887  0.14582622  0.06476580     0.91000
O169        O  0.60526426  0.64366993  0.13729077    -0.71300
O170        O  0.70837018  0.64231843  0.00387456    -0.71300
O171        O  0.65653658  0.58981313  0.15280573    -0.71400
O172        O  0.65715372  0.69617094  0.15464484    -0.71400
O173        O  0.64084033  0.69483849  0.05840886    -0.71400
O174        O  0.64009901  0.58802980  0.05653715    -0.71300
O175        O  0.69187934  0.64077757  0.07425996    -0.71300
O176        O  0.58921171  0.64217079  0.04114955    -0.71400
Ni177      Ni  0.65743113  0.64304059  0.15131712     1.25400
Ni178      Ni  0.63995642  0.64139501  0.06012756     1.25400
C179        C  0.58044306  0.64326048  0.00059450     0.90900
C180        C  0.71688403  0.64140310  0.04457385     0.90800
C181        C  0.64802181  0.57153512  0.02080524     0.90900
C182        C  0.64901371  0.71288594  0.02338609     0.91000
O183        O  0.93595183  0.64251806  0.15917876    -0.71300
O184        O  0.83349098  0.64131112  0.12349430    -0.71300
O185        O  0.88557554  0.58880702  0.14125662    -0.71400
O186        O  0.88384000  0.69504853  0.14176438    -0.71400
O187        O  0.90141276  0.69620058  0.07171023    -0.71400
O188        O  0.90317547  0.58953679  0.07120897    -0.71300
O189        O  0.85114057  0.64227262  0.05349505    -0.71300
O190        O  0.95327342  0.64348942  0.08906000    -0.71400
Ni191      Ni  0.88407049  0.64187559  0.14391641     1.25400
Ni192      Ni  0.90284241  0.64291926  0.06883828     1.25400
C193        C  0.96130785  0.64318310  0.12984401     0.90900
C194        C  0.82564986  0.64161767  0.08260954     0.90800
C195        C  0.89485115  0.57182744  0.10638251     0.90900
C196        C  0.89246701  0.71297184  0.10691238     0.91000
O197        O  0.60491116  0.89572043  0.07466055    -0.71300
O198        O  0.70783340  0.89723575  0.04143361    -0.71300
O199        O  0.65585512  0.94969590  0.05849794    -0.71400
O200        O  0.65695570  0.84331959  0.05796117    -0.71400
O201        O  0.64029340  0.84399337  0.15415938    -0.71400
O202        O  0.63922048  0.95081445  0.15472562    -0.71300
O203        O  0.69110866  0.89809615  0.13773438    -0.71300
O204        O  0.58852956  0.89661295  0.17074305    -0.71400
Ni205      Ni  0.65699060  0.89648854  0.06064978     1.25400
Ni206      Ni  0.63922227  0.89741541  0.15179723     1.25400
C207        C  0.57996847  0.89578591  0.04470392     0.90900
C208        C  0.71618555  0.89783369  0.16747276     0.90800
C209        C  0.64727333  0.96763683  0.02356645     0.90900
C210        C  0.64863747  0.82626852  0.18939357     0.91000
O211        O  0.93584731  0.89591788  0.05559032    -0.71300
O212        O  0.83315196  0.89748798  0.08970198    -0.71300
O213        O  0.88529704  0.94983008  0.07176479    -0.71400
O214        O  0.88368584  0.84358897  0.07316243    -0.71400
O215        O  0.90077123  0.84334561  0.14347601    -0.71400
O216        O  0.90239485  0.95004059  0.14206759    -0.71300
O217        O  0.85029913  0.89745575  0.99322279    -0.71300
O218        O  0.95267342  0.89588632  0.12596651    -0.71400
Ni219      Ni  0.88386536  0.89672426  0.07005285     1.25400
Ni220      Ni  0.90210870  0.89667703  0.14541329     1.25400
C221        C  0.96099143  0.89560887  0.08531294     0.90900
C222        C  0.82502999  0.89767773  0.13046110     0.90800
C223        C  0.89430397  0.96728145  0.10645450     0.90900
C224        C  0.89213075  0.82611731  0.10843121     0.91000
C225        C  0.78671552  0.89804390  0.14351205    -0.10100
C226        C  0.75458091  0.89809658  0.15474748    -0.11700
C227        C  0.89210187  0.78627954  0.10839851    -0.10100
C228        C  0.89221728  0.75280138  0.10752586    -0.11700
C229        C  0.64887332  0.75280239  0.02357694    -0.10100
C230        C  0.64877678  0.78634456  0.02295937    -0.11700
C231        C  0.75531432  0.64121082  0.05741686    -0.10100
C232        C  0.78741588  0.64129202  0.06898204    -0.11700
C233        C  0.89690353  0.04021610  0.09862351    -0.10100
C234        C  0.89574882  0.00708473  0.10468776    -0.11700
C235        C  0.89744770  0.49883256  0.11301774    -0.10100
C236        C  0.89632937  0.53201926  0.10743762    -0.11700
C237        C  0.89995625  0.28543899  0.01602193    -0.10100
C238        C  0.90009295  0.25325782  0.02738595    -0.11700
C239        C  0.64589202  0.04070444  0.03042946    -0.10100
C240        C  0.64642953  0.00753794  0.02487977    -0.11700
C241        C  0.75507813  0.14787362  0.06380045    -0.10100
C242        C  0.78858603  0.14775565  0.06301483    -0.11700
C243        C  0.64641292  0.49851130  0.17985019    -0.10100
C244        C  0.64708330  0.53165084  0.01896320    -0.11700
C245        C  0.75495345  0.39142259  0.14367997    -0.10100
C246        C  0.78848857  0.39136582  0.14454082    -0.11700
C247        C  0.64338586  0.25356361  0.09949468    -0.10100
C248        C  0.64324406  0.28562978  0.11083381    -0.11700
C249        C  0.04270607  0.14393041  0.07220245    -0.10100
C250        C  0.00954850  0.14475374  0.06637365    -0.11700
C251        C  0.50097000  0.14357918  0.05651496    -0.10100
C252        C  0.53412598  0.14471717  0.06223402    -0.11700
C253        C  0.28796942  0.14084027  0.15317115    -0.10100
C254        C  0.25582766  0.14058578  0.14185105    -0.11700
C255        C  0.04296316  0.39432336  0.14339080    -0.10100
C256        C  0.00966502  0.39375525  0.14809460    -0.11700
C257        C  0.15019667  0.25218589  0.10877027    -0.10100
C258        C  0.15037577  0.28568607  0.10886990    -0.11700
C259        C  0.50082866  0.39494186  0.99116169    -0.10100
C260        C  0.53388951  0.39402000  0.15112735    -0.11700
C261        C  0.39384604  0.28595053  0.02687068    -0.10100
C262        C  0.39364835  0.25245289  0.02523282    -0.11700
C263        C  0.28908054  0.39737798  0.06631567    -0.10100
C264        C  0.25700449  0.39739852  0.07786504    -0.11700
C265        C  0.14705174  0.03144133  0.10199487    -0.10100
C266        C  0.14582276  0.99837869  0.09614501    -0.11700
C267        C  0.03262598  0.89401084  0.06718893    -0.10100
C268        C  0.99950911  0.89484055  0.07322974    -0.11700
C269        C  0.14785299  0.50642542  0.11623326    -0.10100
C270        C  0.14646888  0.53950992  0.12189211    -0.11700
C271        C  0.99974681  0.64363178  0.14251922    -0.10100
C272        C  0.03284430  0.64420079  0.14894758    -0.11700
C273        C  0.14150148  0.78533744  0.02966611    -0.10100
C274        C  0.14153403  0.75312072  0.01915643    -0.11700
C275        C  0.39641862  0.03132775  0.02158000    -0.10100
C276        C  0.39687725  0.99807373  0.02717418    -0.11700
C277        C  0.54137328  0.89474133  0.05639335    -0.10100
C278        C  0.50820026  0.89363341  0.06191695    -0.11700
C279        C  0.28715695  0.89105307  0.06274993    -0.10100
C280        C  0.25363354  0.89100670  0.06203832    -0.11700
C281        C  0.39740050  0.54036523  0.02084003    -0.10100
C282        C  0.39687090  0.50714515  0.02675116    -0.11700
C283        C  0.54176285  0.64413404  0.98901193    -0.10100
C284        C  0.50848432  0.64498410  0.15063572    -0.11700
C285        C  0.25391168  0.64744832  0.98861994    -0.10100
C286        C  0.28739854  0.64747495  0.15427705    -0.11700
C287        C  0.39826781  0.75325915  0.11366522    -0.10100
C288        C  0.39829306  0.78529550  0.10147558    -0.11700
O289        O  0.39833044  0.60409134  0.20422537    -0.71300
O290        O  0.39869853  0.70685377  0.16839887    -0.71300
O291        O  0.34532814  0.65599394  0.18763508    -0.71400
O292        O  0.45169557  0.65500310  0.18541176    -0.71400
O293        O  0.45076257  0.63792326  0.28206049    -0.71400
O294        O  0.34398665  0.63883546  0.28435835    -0.71300
O295        O  0.39748341  0.68961653  0.26515242    -0.71300
O296        O  0.39721761  0.58729481  0.30083564    -0.71400
Ni297      Ni  0.39856789  0.65611292  0.18891780     1.25400
Ni298      Ni  0.39730997  0.63784149  0.28058577     1.25400
C299        C  0.39775509  0.57896041  0.34160868     0.90900
C300        C  0.39812425  0.71496213  0.29418635     0.90800
C301        C  0.32730807  0.64743244  0.31982794     0.90900
C302        C  0.46862542  0.64619372  0.31691560     0.91000
O303        O  0.39715716  0.93427799  0.17715485    -0.71300
O304        O  0.39797911  0.83159406  0.21329678    -0.71300
O305        O  0.34439284  0.88247048  0.19499553    -0.71400
O306        O  0.45074359  0.88334974  0.19500901    -0.71400
O307        O  0.45112167  0.90066416  0.26498163    -0.71400
O308        O  0.34434210  0.89976201  0.26497811    -0.71300
O309        O  0.39813297  0.84900878  0.28319913    -0.71300
O310        O  0.39730182  0.95123643  0.24722448    -0.71400
Ni311      Ni  0.39757571  0.88228644  0.19261606     1.25400
Ni312      Ni  0.39772240  0.90074714  0.26761187     1.25400
C313        C  0.39712006  0.95949667  0.20643175     0.90900
C314        C  0.39813397  0.82360193  0.25423334     0.90800
C315        C  0.32700067  0.89107525  0.22989348     0.90900
C316        C  0.46829831  0.89236910  0.22975511     0.91000
O317        O  0.14514618  0.60278148  0.26909120    -0.71300
O318        O  0.14286204  0.70586322  0.30014030    -0.71300
O319        O  0.19710852  0.65519335  0.28586602    -0.71400
O320        O  0.09081117  0.65350434  0.28299112    -0.71400
O321        O  0.08937144  0.63751118  0.18715659    -0.71400
O322        O  0.19619042  0.63919140  0.18993581    -0.71300
O323        O  0.14171375  0.68979482  0.20423091    -0.71300
O324        O  0.14394466  0.58702324  0.17326962    -0.71400
Ni325      Ni  0.14399371  0.65491700  0.28200272     1.25400
Ni326      Ni  0.14275529  0.63783326  0.19121561     1.25400
C327        C  0.14508675  0.57808202  0.29953205     0.90900
C328        C  0.14196951  0.71462848  0.17399836     0.90800
C329        C  0.21398861  0.64735372  0.15487659     0.90900
C330        C  0.07269350  0.64519222  0.15112095     0.91000
O331        O  0.14469742  0.93488989  0.28153384    -0.71300
O332        O  0.14267147  0.83207950  0.24931767    -0.71300
O333        O  0.19680505  0.88273479  0.26453686    -0.71400
O334        O  0.09049389  0.88420842  0.26666590    -0.71400
O335        O  0.08916073  0.90082330  0.19606883    -0.71400
O336        O  0.19596015  0.89930371  0.36054220    -0.71300
O337        O  0.14161659  0.84869295  0.34537387    -0.71300
O338        O  0.14359347  0.95126730  0.21087147    -0.71400
Ni339      Ni  0.14367945  0.88287028  0.26802634     1.25400
Ni340      Ni  0.14252279  0.90061000  0.19234646     1.25400
C341        C  0.14460412  0.95982509  0.25136476     0.90900
C342        C  0.14187615  0.82368890  0.20872471     0.90800
C343        C  0.21373295  0.89097075  0.22900250     0.90900
C344        C  0.07246648  0.89288326  0.23192408     0.91000
O345        O  0.43691062  0.39644258  0.30832502    -0.71300
O346        O  0.33471781  0.39738812  0.17813593    -0.71300
O347        O  0.38645610  0.45007062  0.15981160    -0.71400
O348        O  0.38505793  0.34375413  0.15953154    -0.71400
O349        O  0.40328502  0.34268245  0.22943346    -0.71400
O350        O  0.40468570  0.44955666  0.22971144    -0.71300
O351        O  0.35301828  0.39657078  0.24798791    -0.71300
O352        O  0.45484633  0.39558727  0.21163568    -0.71400
Ni353      Ni  0.38512242  0.39694967  0.15731293     1.25400
Ni354      Ni  0.40458197  0.39607030  0.23221721     1.25400
C355        C  0.46251607  0.39572948  0.17079556     0.90900
C356        C  0.32724791  0.39710718  0.21908216     0.90800
C357        C  0.39589436  0.46720522  0.19457473     0.90900
C358        C  0.39405874  0.32583485  0.19430373     0.91000
O359        O  0.10641718  0.39415036  0.32935771    -0.71300
O360        O  0.20977596  0.39579944  0.29754170    -0.71300
O361        O  0.15768539  0.44810908  0.31520468    -0.71400
O362        O  0.15850132  0.34185824  0.31211459    -0.71400
O363        O  0.14258422  0.34380398  0.24144696    -0.71400
O364        O  0.14172731  0.45041789  0.24456277    -0.71300
O365        O  0.19369613  0.39793658  0.22695447    -0.71300
O366        O  0.09081213  0.39626021  0.25861798    -0.71400
Ni367      Ni  0.15869174  0.39491847  0.31609077     1.25400
Ni368      Ni  0.14168100  0.39717761  0.24035405     1.25400
C369        C  0.08177579  0.39494939  0.29903975     0.90900
C370        C  0.21853489  0.39705596  0.25695939     0.90800
C371        C  0.14931049  0.46660111  0.28060966     0.90900
C372        C  0.15053031  0.32548396  0.27636550     0.91000
O373        O  0.43746405  0.14151201  0.24093509    -0.71300
O374        O  0.33462669  0.14061893  0.20694162    -0.71300
O375        O  0.38679789  0.08791412  0.22307428    -0.71400
O376        O  0.38524170  0.19420960  0.22520445    -0.71400
O377        O  0.40204949  0.19614257  0.32150864    -0.71400
O378        O  0.40352123  0.08932172  0.31944028    -0.71300
O379        O  0.35147763  0.14237077  0.30329343    -0.71300
O380        O  0.45395068  0.14317675  0.33720185    -0.71400
Ni381      Ni  0.38542254  0.14098442  0.22653683     1.25400
Ni382      Ni  0.40331760  0.14281657  0.31781411     1.25400
C383        C  0.46243993  0.14263629  0.21116977     0.90900
C384        C  0.32634305  0.14135192  0.33281418     0.90800
C385        C  0.39546776  0.07122923  0.18777974     0.90900
C386        C  0.39357771  0.21254444  0.19053849     0.91000
O387        O  0.10622500  0.14368367  0.22107780    -0.71300
O388        O  0.20910785  0.14185579  0.25481901    -0.71300
O389        O  0.15715236  0.08961766  0.23636736    -0.71400
O390        O  0.15820208  0.19586329  0.23922042    -0.71400
O391        O  0.14157987  0.19407494  0.30958531    -0.71400
O392        O  0.14048485  0.08745058  0.30670445    -0.71300
O393        O  0.19235865  0.13988859  0.15846127    -0.71300
O394        O  0.08984028  0.14172809  0.29150115    -0.71400
Ni395      Ni  0.15828226  0.14280025  0.23535855     1.25400
Ni396      Ni  0.14051202  0.14070448  0.31077199     1.25400
C397        C  0.08127550  0.14303878  0.25088663     0.90900
C398        C  0.21747682  0.14071660  0.29554186     0.90800
C399        C  0.14842589  0.07119652  0.27084858     0.90900
C400        C  0.14998868  0.21231533  0.27480140     0.91000
O401        O  0.64609107  0.43474036  0.19795131    -0.71300
O402        O  0.64444613  0.33203149  0.33116681    -0.71300
O403        O  0.69840277  0.38290699  0.34654120    -0.71400
O404        O  0.59206574  0.38383825  0.18304298    -0.71400
O405        O  0.59016051  0.40106152  0.27933665    -0.71400
O406        O  0.69700008  0.40008284  0.27613135    -0.71300
O407        O  0.64277522  0.34932964  0.26083880    -0.71300
O408        O  0.64445150  0.45166696  0.29413835    -0.71400
Ni409      Ni  0.64527252  0.38273812  0.18383370     1.25400
Ni410      Ni  0.64353311  0.40111208  0.27507225     1.25400
C411        C  0.64559639  0.45996898  0.33470996     0.90900
C412        C  0.64345432  0.32396361  0.29045607     0.90800
C413        C  0.71507772  0.39144881  0.31093718     0.90900
C414        C  0.57375544  0.39281353  0.31529747     0.91000
O415        O  0.64522124  0.10447536  0.17898374    -0.71300
O416        O  0.64397653  0.20718989  0.21252932    -0.71300
O417        O  0.69776556  0.15648768  0.19570123    -0.71400
O418        O  0.59144487  0.15518180  0.19536201    -0.71400
O419        O  0.59121683  0.13793522  0.26577058    -0.71400
O420        O  0.69797044  0.13928144  0.26612530    -0.71300
O421        O  0.64396898  0.18986066  0.28287183    -0.71300
O422        O  0.64523875  0.08755763  0.24946877    -0.71400
Ni423      Ni  0.64459091  0.15647248  0.19313335     1.25400
Ni424      Ni  0.64460830  0.13808731  0.26859382     1.25400
C425        C  0.64542415  0.07927119  0.20887636     0.90900
C426        C  0.64378428  0.21523846  0.25325925     0.90800
C427        C  0.71522811  0.14793210  0.23086012     0.90900
C428        C  0.57397385  0.14611958  0.23027088     0.91000
O429        O  0.89902788  0.43552216  0.26185267    -0.71300
O430        O  0.89998695  0.33251629  0.29572988    -0.71300
O431        O  0.84631556  0.38334493  0.27761159    -0.71400
O432        O  0.95273030  0.38463057  0.27967151    -0.71400
O433        O  0.95203656  0.40077542  0.18335009    -0.71400
O434        O  0.84524008  0.39953297  0.18126664    -0.71300
O435        O  0.89904368  0.34876252  0.19937262    -0.71300
O436        O  0.89815118  0.45140840  0.16559452    -0.71400
Ni437      Ni  0.89956746  0.38341584  0.27620196     1.25400
Ni438      Ni  0.89858417  0.40067261  0.18493541     1.25400
C439        C  0.89831146  0.46025829  0.29164660     0.90900
C440        C  0.89965081  0.32387343  0.16981190     0.90800
C441        C  0.82841468  0.39139810  0.31235434     0.90900
C442        C  0.96978436  0.39298395  0.31500727     0.91000
O443        O  0.89805325  0.10366923  0.28265239    -0.71300
O444        O  0.89959864  0.20650570  0.24813426    -0.71300
O445        O  0.84570884  0.15579909  0.26491919    -0.71400
O446        O  0.95201751  0.15443805  0.26619701    -0.71400
O447        O  0.95267730  0.13789762  0.19595823    -0.71400
O448        O  0.84591319  0.13924182  0.19467759    -0.71300
O449        O  0.90004705  0.18992582  0.34457345    -0.71300
O450        O  0.89849234  0.08738232  0.21234002    -0.71400
Ni451      Ni  0.89885645  0.15570387  0.26798006     1.25400
Ni452      Ni  0.89929368  0.13804078  0.19268217     1.25400
C453        C  0.89791319  0.07877700  0.25302739     0.90900
C454        C  0.89994755  0.21492138  0.20734524     0.90800
C455        C  0.82845295  0.14763050  0.22969079     0.90900
C456        C  0.96970685  0.14582546  0.23149390     0.91000
O457        O  0.60529807  0.64374209  0.30393230    -0.71300
O458        O  0.70836696  0.64238348  0.17058642    -0.71300
O459        O  0.65654104  0.58984984  0.31943672    -0.71400
O460        O  0.65720901  0.69620706  0.32133184    -0.71400
O461        O  0.64076504  0.69483839  0.22507961    -0.71400
O462        O  0.64013731  0.58802339  0.22322353    -0.71300
O463        O  0.69185413  0.64083257  0.24096393    -0.71300
O464        O  0.58919460  0.64211419  0.20781571    -0.71400
Ni465      Ni  0.65746173  0.64307835  0.31797610     1.25400
Ni466      Ni  0.63993590  0.64139199  0.22680854     1.25400
C467        C  0.58043200  0.64319709  0.16725901     0.90900
C468        C  0.71686876  0.64148220  0.21129069     0.90800
C469        C  0.64808875  0.57153273  0.18749661     0.90900
C470        C  0.64893208  0.71288865  0.19005602     0.91000
O471        O  0.93599435  0.64251711  0.32581573    -0.71300
O472        O  0.83350253  0.64139507  0.29022315    -0.71300
O473        O  0.88556101  0.58884878  0.30794130    -0.71400
O474        O  0.88391063  0.69508566  0.30845676    -0.71400
O475        O  0.90143156  0.69622845  0.23838352    -0.71400
O476        O  0.90311641  0.58956736  0.23787764    -0.71300
O477        O  0.85110955  0.64234161  0.22020870    -0.71300
O478        O  0.95326541  0.64348155  0.25567924    -0.71400
Ni479      Ni  0.88409911  0.64191631  0.31060343     1.25400
Ni480      Ni  0.90282040  0.64294858  0.23550709     1.25400
C481        C  0.96132983  0.64316710  0.29645466     0.90900
C482        C  0.82563592  0.64170838  0.24934370     0.90800
C483        C  0.89480717  0.57186429  0.27306034     0.90900
C484        C  0.89252367  0.71300254  0.27359653     0.91000
O485        O  0.60483937  0.89572628  0.24128768    -0.71300
O486        O  0.70778337  0.89722283  0.20815695    -0.71300
O487        O  0.65580499  0.94969181  0.22518310    -0.71400
O488        O  0.65687519  0.84331587  0.22462442    -0.71400
O489        O  0.64032442  0.84400586  0.32085910    -0.71400
O490        O  0.63926096  0.95082269  0.32138401    -0.71300
O491        O  0.69113854  0.89809784  0.30439875    -0.71300
O492        O  0.58856731  0.89663599  0.33743994    -0.71400
Ni493      Ni  0.65692602  0.89648406  0.22732447     1.25400
Ni494      Ni  0.63925629  0.89742580  0.31847708     1.25400
C495        C  0.57991659  0.89580138  0.21130848     0.90900
C496        C  0.71622161  0.89784057  0.33412966     0.90800
C497        C  0.64725390  0.96764090  0.19024694     0.90900
C498        C  0.64867813  0.82629051  0.35609639     0.91000
O499        O  0.93586723  0.89593376  0.22224616    -0.71300
O500        O  0.83317835  0.89747859  0.25635149    -0.71300
O501        O  0.88530336  0.94983253  0.23840052    -0.71400
O502        O  0.88373131  0.84359597  0.23983321    -0.71400
O503        O  0.90081112  0.84337510  0.31014938    -0.71400
O504        O  0.90240230  0.95006404  0.30870311    -0.71300
O505        O  0.85031053  0.89745028  0.15996328    -0.71300
O506        O  0.95269186  0.89592224  0.29262379    -0.71400
Ni507      Ni  0.88388976  0.89672759  0.23670550     1.25400
Ni508      Ni  0.90213093  0.89670456  0.31206786     1.25400
C509        C  0.96100773  0.89563483  0.25197085     0.90900
C510        C  0.82505617  0.89767925  0.29710967     0.90800
C511        C  0.89430554  0.96729306  0.27308515     0.90900
C512        C  0.89218272  0.82613751  0.27510777     0.91000
C513        C  0.78674414  0.89804284  0.31015694    -0.10100
C514        C  0.75461160  0.89809772  0.32139418    -0.11700
C515        C  0.89217324  0.78630366  0.27508461    -0.10100
C516        C  0.89229227  0.75282808  0.27421157    -0.11700
C517        C  0.64877186  0.75280568  0.19023926    -0.10100
C518        C  0.64868455  0.78634791  0.18961217    -0.11700
C519        C  0.75529534  0.64132290  0.22415774    -0.10100
C520        C  0.78739403  0.64140677  0.23573862    -0.11700
C521        C  0.89688807  0.04022419  0.26525701    -0.10100
C522        C  0.89573806  0.00709309  0.27131002    -0.11700
C523        C  0.89741975  0.49887350  0.27970641    -0.10100
C524        C  0.89628206  0.53205807  0.27412138    -0.11700
C525        C  0.89998257  0.28546201  0.18278898    -0.10100
C526        C  0.90011569  0.25328443  0.19416122    -0.11700
C527        C  0.64590157  0.04070843  0.19711738    -0.10100
C528        C  0.64642585  0.00754192  0.19156667    -0.11700
C529        C  0.75508758  0.14788962  0.23049903    -0.10100
C530        C  0.78859342  0.14777816  0.22970920    -0.11700
C531        C  0.64641114  0.49853623  0.34647031    -0.10100
C532        C  0.64718248  0.53164514  0.18565235    -0.11700
C533        C  0.75498002  0.39144806  0.31036071    -0.10100
C534        C  0.78851542  0.39139338  0.31122243    -0.11700
C535        C  0.64341047  0.25356489  0.26619626    -0.10100
C536        C  0.64327634  0.28563004  0.27754099    -0.11700
C537        C  0.04269955  0.14389416  0.23895366    -0.10100
C538        C  0.00954403  0.14473327  0.23311753    -0.11700
C539        C  0.50099314  0.14353906  0.22316081    -0.10100
C540        C  0.53414628  0.14469021  0.22889427    -0.11700
C541        C  0.28799616  0.14090047  0.31978360    -0.10100
C542        C  0.25585098  0.14062754  0.30847588    -0.11700
C543        C  0.04299792  0.39434065  0.31007164    -0.10100
C544        C  0.00969732  0.39379375  0.31476448    -0.11700
C545        C  0.15017067  0.25215054  0.27552606    -0.10100
C546        C  0.15036412  0.28564798  0.27562387    -0.11700
C547        C  0.50085304  0.39495827  0.15782969    -0.10100
C548        C  0.53391461  0.39402557  0.31779735    -0.11700
C549        C  0.39388953  0.28592959  0.19356721    -0.10100
C550        C  0.39369212  0.25243214  0.19193491    -0.11700
C551        C  0.28911878  0.39733158  0.23300289    -0.10100
C552        C  0.25704504  0.39733643  0.24455918    -0.11700
C553        C  0.14708928  0.03142561  0.26863590    -0.10100
C554        C  0.14585021  0.99836463  0.26278806    -0.11700
C555        C  0.03263221  0.89402162  0.23385803    -0.10100
C556        C  0.99951876  0.89486146  0.23989045    -0.11700
C557        C  0.14792081  0.50637114  0.28287755    -0.10100
C558        C  0.14652943  0.53945276  0.28853730    -0.11700
C559        C  0.99978005  0.64359374  0.30908789    -0.10100
C560        C  0.03288085  0.64415190  0.31549717    -0.11700
C561        C  0.14146458  0.78530915  0.19643094    -0.10100
C562        C  0.14148967  0.75309427  0.18592059    -0.11700
C563        C  0.39638165  0.03131419  0.18822036    -0.10100
C564        C  0.39682609  0.99806084  0.19380716    -0.11700
C565        C  0.54131670  0.89475491  0.22296916    -0.10100
C566        C  0.50814581  0.89364046  0.22850064    -0.11700
C567        C  0.28712550  0.89103681  0.22947668    -0.10100
C568        C  0.25360657  0.89097750  0.22876898    -0.11700
C569        C  0.39740182  0.54034232  0.18748092    -0.10100
C570        C  0.39688823  0.50712295  0.19340053    -0.11700
C571        C  0.54174961  0.64406373  0.15567186    -0.10100
C572        C  0.50851374  0.64509151  0.31726715    -0.11700
C573        C  0.25387799  0.64745076  0.15526741    -0.10100
C574        C  0.28743135  0.64741478  0.32104857    -0.11700
C575        C  0.39821131  0.75327872  0.28035799    -0.10100
C576        C  0.39823576  0.78531123  0.26816329    -0.11700
O577        O  0.39841919  0.60412967  0.37093458    -0.71300
O578        O  0.39868781  0.70688422  0.33509539    -0.71300
O579        O  0.34536782  0.65598439  0.35437239    -0.71400
O580        O  0.45173506  0.65508224  0.35207726    -0.71400
O581        O  0.45078028  0.63788889  0.44868130    -0.71400
O582        O  0.34400793  0.63880982  0.45096260    -0.71300
O583        O  0.39751523  0.68958987  0.43176960    -0.71300
O584        O  0.39723453  0.58726167  0.46744581    -0.71400
Ni585      Ni  0.39860810  0.65614789  0.35561993     1.25400
Ni586      Ni  0.39733129  0.63781144  0.44719899     1.25400
C587        C  0.39777230  0.57892363  0.50821840     0.90900
C588        C  0.39816119  0.71493535  0.46080377     0.90800
C589        C  0.32732639  0.64740726  0.48642985     0.90900
C590        C  0.46863807  0.64615958  0.48353883     0.91000
O591        O  0.39718843  0.93430591  0.34385685    -0.71300
O592        O  0.39806620  0.83160193  0.37994249    -0.71300
O593        O  0.34445142  0.88245534  0.36164486    -0.71400
O594        O  0.45080387  0.88340213  0.36170246    -0.71400
O595        O  0.45115180  0.90068717  0.43168494    -0.71400
O596        O  0.34436717  0.89971745  0.43163664    -0.71300
O597        O  0.39818699  0.84898824  0.44985381    -0.71300
O598        O  0.39730019  0.95123488  0.41393592    -0.71400
Ni599      Ni  0.39763674  0.88230575  0.35928903     1.25400
Ni600      Ni  0.39774872  0.90073489  0.43429419     1.25400
C601        C  0.39712319  0.95951367  0.37314800     0.90900
C602        C  0.39820950  0.82359167  0.42087513     0.90800
C603        C  0.32704114  0.89103775  0.39653842     0.90900
C604        C  0.46834437  0.89241624  0.39646040     0.91000
O605        O  0.14513066  0.60279719  0.43577786    -0.71300
O606        O  0.14288497  0.70589796  0.46678812    -0.71300
O607        O  0.19711459  0.65520491  0.45250315    -0.71400
O608        O  0.09081588  0.65354412  0.44968277    -0.71400
O609        O  0.08938377  0.63745314  0.35374889    -0.71400
O610        O  0.19619865  0.63911981  0.35663410    -0.71300
O611        O  0.14171915  0.68973325  0.37086795    -0.71300
O612        O  0.14396135  0.58696022  0.33991484    -0.71400
Ni613      Ni  0.14399820  0.65494204  0.44866872     1.25400
Ni614      Ni  0.14276363  0.63776964  0.35785848     1.25400
C615        C  0.14507440  0.57810452  0.46622809     0.90900
C616        C  0.14200312  0.71456527  0.34063340     0.90800
C617        C  0.21402313  0.64727820  0.32159303     0.90900
C618        C  0.07273039  0.64513479  0.31769802     0.91000
O619        O  0.14472746  0.93483789  0.44815496    -0.71300
O620        O  0.14271027  0.83202284  0.41593944    -0.71300
O621        O  0.19684108  0.88268423  0.43114910    -0.71400
O622        O  0.09052703  0.88414627  0.43329995    -0.71400
O623        O  0.08918034  0.90076132  0.36270415    -0.71400
O624        O  0.19592750  0.89936502  0.52718202    -0.71300
O625        O  0.14158003  0.84875539  0.51202241    -0.71300
O626        O  0.14361186  0.95121491  0.37749370    -0.71400
Ni627      Ni  0.14371452  0.88281511  0.43464733     1.25400
Ni628      Ni  0.14254561  0.90055474  0.35896935     1.25400
C629        C  0.14462562  0.95977475  0.41798664     0.90900
C630        C  0.14191110  0.82363142  0.37534678     0.90800
C631        C  0.21376578  0.89092096  0.39561278     0.90900
C632        C  0.07249142  0.89282095  0.39856387     0.91000
O633        O  0.43693439  0.39635624  0.47501403    -0.71300
O634        O  0.33474244  0.39746418  0.34479397    -0.71300
O635        O  0.38650632  0.45013234  0.32650837    -0.71400
O636        O  0.38506738  0.34381745  0.32615629    -0.71400
O637        O  0.40328844  0.34270521  0.39605979    -0.71400
O638        O  0.40473148  0.44957865  0.39641005    -0.71300
O639        O  0.35303762  0.39660589  0.41464759    -0.71300
O640        O  0.45486916  0.39559795  0.37830456    -0.71400
Ni641      Ni  0.38514956  0.39701458  0.32397516     1.25400
Ni642      Ni  0.40460348  0.39609154  0.39888120     1.25400
C643        C  0.46254158  0.39575600  0.33746484     0.90900
C644        C  0.32726887  0.39716735  0.38573959     0.90800
C645        C  0.39595440  0.46724627  0.36128183     0.90900
C646        C  0.39406816  0.32587752  0.36091389     0.91000
O647        O  0.10643460  0.39410549  0.49601451    -0.71300
O648        O  0.20979317  0.39582571  0.46419828    -0.71300
O649        O  0.15767074  0.44810302  0.48188710    -0.71400
O650        O  0.15854855  0.34184541  0.47874958    -0.71400
O651        O  0.14262999  0.34380384  0.40808415    -0.71400
O652        O  0.14171154  0.45042706  0.41124716    -0.71300
O653        O  0.19371160  0.39797689  0.39361267    -0.71300
O654        O  0.09082901  0.39622961  0.42527555    -0.71400
Ni655      Ni  0.15870856  0.39490874  0.48274785     1.25400
Ni656      Ni  0.14169668  0.39718285  0.40701340     1.25400
C657        C  0.08179351  0.39490041  0.46569618     0.90900
C658        C  0.21855168  0.39709982  0.42361619     0.90800
C659        C  0.14928622  0.46660498  0.44730134     0.90900
C660        C  0.15058470  0.32547473  0.44299492     0.91000
O661        O  0.43747242  0.14154622  0.40759909    -0.71300
O662        O  0.33464199  0.14069913  0.37356682    -0.71300
O663        O  0.38677647  0.08796830  0.38975730    -0.71400
O664        O  0.38528191  0.19426861  0.39181005    -0.71400
O665        O  0.40207118  0.19612894  0.48822640    -0.71400
O666        O  0.40356415  0.08931684  0.48606512    -0.71300
O667        O  0.35151504  0.14235975  0.46995131    -0.71300
O668        O  0.45397887  0.14316804  0.50389123    -0.71400
Ni669      Ni  0.38543300  0.14104346  0.39318024     1.25400
Ni670      Ni  0.40335112  0.14280871  0.48448699     1.25400
C671        C  0.46245838  0.14263847  0.37784374     0.90900
C672        C  0.32637514  0.14131216  0.49946462     0.90800
C673        C  0.39544939  0.07125845  0.35448010     0.90900
C674        C  0.39362950  0.21258297  0.35713329     0.91000
O675        O  0.10626286  0.14366090  0.38770983    -0.71300
O676        O  0.20914770  0.14180459  0.42144795    -0.71300
O677        O  0.15717760  0.08957805  0.40299617    -0.71400
O678        O  0.15825792  0.19583041  0.40584645    -0.71400
O679        O  0.14163672  0.19404964  0.47621040    -0.71400
O680        O  0.14050985  0.08741505  0.47333233    -0.71300
O681        O  0.19238854  0.13986990  0.32512700    -0.71300
O682        O  0.08988031  0.14171182  0.45813309    -0.71400
Ni683      Ni  0.15832178  0.14276319  0.40198762     1.25400
Ni684      Ni  0.14055239  0.14067383  0.47740020     1.25400
C685        C  0.08131373  0.14302443  0.41751956     0.90900
C686        C  0.21751600  0.14066509  0.46217095     0.90800
C687        C  0.14844678  0.07115695  0.43747618     0.90900
C688        C  0.15004969  0.21228907  0.44142548     0.91000
O689        O  0.64610455  0.43476897  0.36460398    -0.71300
O690        O  0.64451056  0.33199525  0.49785605    -0.71300
O691        O  0.69843663  0.38290113  0.51322305    -0.71400
O692        O  0.59209057  0.38385069  0.34971577    -0.71400
O693        O  0.59017553  0.40099271  0.44604116    -0.71400
O694        O  0.69701171  0.40008133  0.44281499    -0.71300
O695        O  0.64281607  0.34929914  0.42752974    -0.71300
O696        O  0.64443270  0.45163123  0.46084503    -0.71400
Ni697      Ni  0.64529722  0.38276001  0.35050928     1.25400
Ni698      Ni  0.64354533  0.40107873  0.44176886     1.25400
C699        C  0.64557257  0.45992805  0.50141856     0.90900
C700        C  0.64351074  0.32393237  0.45714528     0.90800
C701        C  0.71510022  0.39145151  0.47761385     0.90900
C702        C  0.57377919  0.39272703  0.48200136     0.91000
O703        O  0.64524218  0.10448335  0.34563573    -0.71300
O704        O  0.64398672  0.20718206  0.37921149    -0.71300
O705        O  0.69778068  0.15650050  0.36235029    -0.71400
O706        O  0.59145798  0.15517077  0.36204867    -0.71400
O707        O  0.59124945  0.13790666  0.43245128    -0.71400
O708        O  0.69800734  0.13927884  0.43276896    -0.71300
O709        O  0.64399974  0.18983791  0.44954973    -0.71300
O710        O  0.64528262  0.08754873  0.41611584    -0.71400
Ni711      Ni  0.64460433  0.15647323  0.35980142     1.25400
Ni712      Ni  0.64464456  0.13807066  0.43525652     1.25400
C713        C  0.64546040  0.07927403  0.37552056     0.90900
C714        C  0.64380873  0.21522012  0.41994356     0.90800
C715        C  0.71525485  0.14794350  0.39750093     0.90900
C716        C  0.57399567  0.14609622  0.39695943     0.91000
O717        O  0.89906851  0.43549367  0.42849547    -0.71300
O718        O  0.89998573  0.33248461  0.46235722    -0.71300
O719        O  0.84633349  0.38333386  0.44424686    -0.71400
O720        O  0.95274919  0.38457743  0.44631146    -0.71400
O721        O  0.95206712  0.40082169  0.35001723    -0.71400
O722        O  0.84526938  0.39955791  0.34794583    -0.71300
O723        O  0.89908652  0.34879453  0.36603335    -0.71300
O724        O  0.89816487  0.45144596  0.33227711    -0.71400
Ni725      Ni  0.89958602  0.38338497  0.44283795     1.25400
Ni726      Ni  0.89861397  0.40070762  0.35160787     1.25400
C727        C  0.89836305  0.46022772  0.45829222     0.90900
C728        C  0.89969480  0.32390978  0.33646748     0.90800
C729        C  0.82843592  0.39138998  0.47899131     0.90900
C730        C  0.96980382  0.39292010  0.48165050     0.91000
O731        O  0.89807845  0.10368721  0.44928272    -0.71300
O732        O  0.89963793  0.20653179  0.41477545    -0.71300
O733        O  0.84573929  0.15582933  0.43155038    -0.71400
O734        O  0.95205084  0.15445537  0.43283765    -0.71400
O735        O  0.95271172  0.13791656  0.36259903    -0.71400
O736        O  0.84594637  0.13927849  0.36130739    -0.71300
O737        O  0.90004458  0.18988735  0.51119445    -0.71300
O738        O  0.89851749  0.08740693  0.37896912    -0.71400
Ni739      Ni  0.89888822  0.15572658  0.43461582     1.25400
Ni740      Ni  0.89932785  0.13806895  0.35931759     1.25400
C741        C  0.89793768  0.07879611  0.41965493     0.90900
C742        C  0.89999214  0.21495066  0.37398721     0.90800
C743        C  0.82848384  0.14766602  0.39631948     0.90900
C744        C  0.96974130  0.14584102  0.39813569     0.91000
O745        O  0.60529562  0.64369537  0.47056401    -0.71300
O746        O  0.70839357  0.64238686  0.33726227    -0.71300
O747        O  0.65650263  0.58978515  0.48610895    -0.71400
O748        O  0.65723097  0.69614584  0.48792432    -0.71400
O749        O  0.64079857  0.69485440  0.39175922    -0.71400
O750        O  0.64012704  0.58804212  0.38984893    -0.71300
O751        O  0.69186293  0.64081944  0.40763307    -0.71300
O752        O  0.58921137  0.64216291  0.37445102    -0.71400
Ni753      Ni  0.65745411  0.64301253  0.48460785     1.25400
Ni754      Ni  0.63994751  0.64140893  0.39346039     1.25400
C755        C  0.58045884  0.64327089  0.33389237     0.90900
C756        C  0.71688557  0.64146432  0.37796911     0.90800
C757        C  0.64808170  0.57156031  0.35411753     0.90900
C758        C  0.64898062  0.71291416  0.35674778     0.91000
O759        O  0.93600517  0.64251313  0.49252898    -0.71300
O760        O  0.83351495  0.64132619  0.45692608    -0.71300
O761        O  0.88561145  0.58881113  0.47462701    -0.71400
O762        O  0.88388405  0.69505273  0.47518585    -0.71400
O763        O  0.90141447  0.69622606  0.40511728    -0.71400
O764        O  0.90316730  0.58956187  0.40456417    -0.71300
O765        O  0.85112660  0.64231095  0.38691407    -0.71300
O766        O  0.95328122  0.64350557  0.42239476    -0.71400
Ni767      Ni  0.88411082  0.64187881  0.47731106     1.25400
Ni768      Ni  0.90283713  0.64294582  0.40221767     1.25400
C769        C  0.96134307  0.64318805  0.46317119     0.90900
C770        C  0.82565059  0.64165184  0.41604611     0.90800
C771        C  0.89486755  0.57184196  0.43973897     0.90900
C772        C  0.89249288  0.71298667  0.44033521     0.91000
O773        O  0.60489470  0.89576989  0.40797843    -0.71300
O774        O  0.70783002  0.89724066  0.37481631    -0.71300
O775        O  0.65586569  0.94971910  0.39183570    -0.71400
O776        O  0.65692236  0.84334615  0.39131892    -0.71400
O777        O  0.64034262  0.84398940  0.48743822    -0.71400
O778        O  0.63924425  0.95080860  0.48801769    -0.71300
O779        O  0.69114482  0.89810662  0.47102575    -0.71300
O780        O  0.58856173  0.89660048  0.50402979    -0.71400
Ni781      Ni  0.65697880  0.89651414  0.39399886     1.25400
Ni782      Ni  0.63925713  0.89741175  0.48508423     1.25400
C783        C  0.57996378  0.89584209  0.37800887     0.90900
C784        C  0.71622016  0.89784804  0.50076599     0.90800
C785        C  0.64730619  0.96765701  0.35689528     0.90900
C786        C  0.64869499  0.82626208  0.52266822     0.91000
O787        O  0.93588547  0.89589895  0.38891881    -0.71300
O788        O  0.83319328  0.89749294  0.42301962    -0.71300
O789        O  0.88533703  0.94982630  0.40504275    -0.71400
O790        O  0.88372783  0.84358249  0.40653658    -0.71400
O791        O  0.90080801  0.84338574  0.47685167    -0.71400
O792        O  0.90242988  0.95008041  0.47534640    -0.71300
O793        O  0.85033443  0.89746741  0.32661386    -0.71300
O794        O  0.95270925  0.89591423  0.45929588    -0.71400
Ni795      Ni  0.88390629  0.89671697  0.40337720     1.25400
Ni796      Ni  0.90214475  0.89671907  0.47873904     1.25400
C797        C  0.96102698  0.89560534  0.41864292     0.90900
C798        C  0.82506808  0.89770876  0.46377674     0.90800
C799        C  0.89433790  0.96729981  0.43971953     0.90900
C800        C  0.89216982  0.82613401  0.44182224     0.91000
C801        C  0.78675259  0.89807712  0.47681956    -0.10100
C802        C  0.75461604  0.89812395  0.48804545    -0.11700
C803        C  0.89213886  0.78629515  0.44182598    -0.10100
C804        C  0.89224916  0.75281664  0.44096460    -0.11700
C805        C  0.64882368  0.75282973  0.35694850    -0.10100
C806        C  0.64873144  0.78637128  0.35632555    -0.11700
C807        C  0.75531051  0.64127606  0.39084922    -0.10100
C808        C  0.78740821  0.64134539  0.40243670    -0.11700
C809        C  0.89691439  0.04023767  0.43187832    -0.10100
C810        C  0.89576919  0.00710391  0.43792909    -0.11700
C811        C  0.89748941  0.49884663  0.44635716    -0.10100
C812        C  0.89635665  0.53203354  0.44078172    -0.11700
C813        C  0.90003213  0.28549518  0.34943650    -0.10100
C814        C  0.90016525  0.25331582  0.36080503    -0.11700
C815        C  0.64594687  0.04071844  0.36374965    -0.10100
C816        C  0.64647731  0.00755447  0.35819999    -0.11700
C817        C  0.75511585  0.14791623  0.39712795    -0.10100
C818        C  0.78862279  0.14781357  0.39633524    -0.11700
C819        C  0.64636028  0.49849342  0.51318760    -0.10100
C820        C  0.64717357  0.53167232  0.35226147    -0.11700
C821        C  0.75500175  0.39145778  0.47701947    -0.10100
C822        C  0.78853719  0.39139765  0.47786411    -0.11700
C823        C  0.64344988  0.25354026  0.43288745    -0.10100
C824        C  0.64333057  0.28560332  0.44423016    -0.11700
C825        C  0.04273620  0.14389228  0.40559026    -0.10100
C826        C  0.00957946  0.14474119  0.39976012    -0.11700
C827        C  0.50101141  0.14352100  0.38985035    -0.10100
C828        C  0.53416535  0.14466273  0.39559148    -0.11700
C829        C  0.28803184  0.14085173  0.48642269    -0.10100
C830        C  0.25588916  0.14057357  0.47510707    -0.11700
C831        C  0.04301638  0.39427067  0.47672605    -0.10100
C832        C  0.00971622  0.39371905  0.48141228    -0.11700
C833        C  0.15023936  0.25213109  0.44214490    -0.10100
C834        C  0.15043138  0.28563219  0.44224145    -0.11700
C835        C  0.50087868  0.39497289  0.32450114    -0.10100
C836        C  0.53393859  0.39391834  0.48450230    -0.11700
C837        C  0.39391507  0.28597150  0.36014132    -0.10100
C838        C  0.39373829  0.25247335  0.35850077    -0.11700
C839        C  0.28913739  0.39739843  0.39965745    -0.10100
C840        C  0.25706278  0.39739900  0.41121394    -0.11700
C841        C  0.14710358  0.03138186  0.43526119    -0.10100
C842        C  0.14586591  0.99831867  0.42941043    -0.11700
C843        C  0.03265423  0.89396371  0.40051313    -0.10100
C844        C  0.99954086  0.89481410  0.40655972    -0.11700
C845        C  0.14788477  0.50637991  0.44958689    -0.10100
C846        C  0.14649928  0.53946531  0.45524789    -0.11700
C847        C  0.99979290  0.64363758  0.47580935    -0.10100
C848        C  0.03289438  0.64420696  0.48221707    -0.11700
C849        C  0.14150167  0.78525026  0.36305348    -0.10100
C850        C  0.14152563  0.75303325  0.35254948    -0.11700
C851        C  0.39635219  0.03134019  0.35495244    -0.10100
C852        C  0.39680514  0.99808544  0.36054384    -0.11700
C853        C  0.54136514  0.89481178  0.38968442    -0.10100
C854        C  0.50819358  0.89370184  0.39522056    -0.11700
C855        C  0.28716308  0.89098774  0.39609830    -0.10100
C856        C  0.25364254  0.89092763  0.39537627    -0.11700
C857        C  0.39750422  0.54038045  0.35420443    -0.10100
C858        C  0.39697721  0.50716243  0.36012575    -0.11700
C859        C  0.54177918  0.64416456  0.32229536    -0.10100
C860        C  0.50852153  0.64506365  0.48389225    -0.11700
C861        C  0.25391136  0.64737613  0.32202594    -0.10100
C862        C  0.28744960  0.64739836  0.48764451    -0.11700
C863        C  0.39827209  0.75325591  0.44697590    -0.10100
C864        C  0.39831225  0.78529236  0.43478721    -0.11700
O865        O  0.39843036  0.60409245  0.53754642    -0.71300
O866        O  0.39871143  0.70685379  0.50171303    -0.71300
O867        O  0.34538293  0.65595423  0.52097813    -0.71400
O868        O  0.45174633  0.65504505  0.51870007    -0.71400
O869        O  0.45074071  0.63793180  0.61540248    -0.71400
O870        O  0.34396228  0.63886606  0.61764513    -0.71300
O871        O  0.39748145  0.68963381  0.59846521    -0.71300
O872        O  0.39717944  0.58731505  0.63414719    -0.71400
Ni873      Ni  0.39862223  0.65611377  0.52223464     1.25400
Ni874      Ni  0.39728859  0.63786056  0.61389880     1.25400
C875        C  0.39770391  0.57898003  0.67491993     0.90900
C876        C  0.39812126  0.71497916  0.62749893     0.90800
C877        C  0.32727315  0.64746646  0.65310723     0.90900
C878        C  0.46859175  0.64619936  0.65026710     0.91000
O879        O  0.39717309  0.93428185  0.51044621    -0.71300
O880        O  0.39802191  0.83160064  0.54659445    -0.71300
O881        O  0.34442138  0.88246000  0.52827469    -0.71400
O882        O  0.45077317  0.88336993  0.52830926    -0.71400
O883        O  0.45114031  0.90069093  0.59827916    -0.71400
O884        O  0.34435208  0.89975222  0.59825623    -0.71300
O885        O  0.39816322  0.84902022  0.61649526    -0.71300
O886        O  0.39729949  0.95124276  0.58051491    -0.71400
Ni887      Ni  0.39760573  0.88229129  0.52590887     1.25400
Ni888      Ni  0.39773623  0.90075581  0.60090299     1.25400
C889        C  0.39712149  0.95950115  0.53972222     0.90900
C890        C  0.39817326  0.82361188  0.58753202     0.90800
C891        C  0.32701841  0.89106434  0.56316514     0.90900
C892        C  0.46832345  0.89239612  0.56305573     0.91000
O893        O  0.14509198  0.60281243  0.60246636    -0.71300
O894        O  0.14280247  0.70590428  0.63349210    -0.71300
O895        O  0.19705173  0.65523883  0.61919123    -0.71400
O896        O  0.09075507  0.65353111  0.61638568    -0.71400
O897        O  0.08941046  0.63751560  0.52044813    -0.71400
O898        O  0.19622839  0.63915180  0.52327772    -0.71300
O899        O  0.14176647  0.68978787  0.53752211    -0.71300
O900        O  0.14396880  0.58699831  0.50660783    -0.71400
Ni901      Ni  0.14393552  0.65495284  0.61536474     1.25400
Ni902      Ni  0.14279291  0.63781764  0.52453106     1.25400
C903        C  0.14505438  0.57811772  0.63291382     0.90900
C904        C  0.14203810  0.71461314  0.50727863     0.90800
C905        C  0.21404133  0.64729285  0.48822281     0.90900
C906        C  0.07274539  0.64518910  0.48440201     0.91000
O907        O  0.14471583  0.93489233  0.61481591    -0.71300
O908        O  0.14269214  0.83207832  0.58258508    -0.71300
O909        O  0.19682373  0.88274029  0.59778734    -0.71400
O910        O  0.09051093  0.88420474  0.59997497    -0.71400
O911        O  0.08914445  0.90082619  0.52938168    -0.71400
O912        O  0.19590495  0.89936553  0.69390852    -0.71300
O913        O  0.14157210  0.84874732  0.67872757    -0.71300
O914        O  0.14358221  0.95127482  0.54415590    -0.71400
Ni915      Ni  0.14369876  0.88287080  0.60130196     1.25400
Ni916      Ni  0.14251078  0.90061711  0.52562634     1.25400
C917        C  0.14460576  0.95983115  0.58464944     0.90900
C918        C  0.14188959  0.82368952  0.54199065     0.90800
C919        C  0.21374090  0.89097876  0.56224672     0.90900
C920        C  0.07246495  0.89288597  0.56524842     0.91000
O921        O  0.43688835  0.39644159  0.64165359    -0.71300
O922        O  0.33476484  0.39742428  0.51148534    -0.71300
O923        O  0.38654296  0.45007289  0.49315937    -0.71400
O924        O  0.38507741  0.34375775  0.49288195    -0.71400
O925        O  0.40330215  0.34267604  0.56278468    -0.71400
O926        O  0.40476835  0.44955086  0.56306026    -0.71300
O927        O  0.35306332  0.39659582  0.58133693    -0.71300
O928        O  0.45489272  0.39554498  0.54499389    -0.71400
Ni929      Ni  0.38517282  0.39695267  0.49066425     1.25400
Ni930      Ni  0.40462842  0.39606314  0.56556917     1.25400
C931        C  0.46256494  0.39567512  0.50415492     0.90900
C932        C  0.32729269  0.39714632  0.55243192     0.90800
C933        C  0.39599328  0.46720369  0.52792056     0.90900
C934        C  0.39407675  0.32583376  0.52765105     0.91000
O935        O  0.10642901  0.39415046  0.66267174    -0.71300
O936        O  0.20980293  0.39583229  0.63089072    -0.71300
O937        O  0.15769282  0.44812685  0.64856634    -0.71400
O938        O  0.15853337  0.34187419  0.64542154    -0.71400
O939        O  0.14263376  0.34384242  0.57474988    -0.71400
O940        O  0.14175221  0.45045870  0.57792045    -0.71300
O941        O  0.19373841  0.39799310  0.56030029    -0.71300
O942        O  0.09084317  0.39628405  0.59192770    -0.71400
Ni943      Ni  0.15871075  0.39493440  0.64942373     1.25400
Ni944      Ni  0.14171888  0.39721840  0.57368349     1.25400
C945        C  0.08179411  0.39495641  0.63234509     0.90900
C946        C  0.21857207  0.39710479  0.59031103     0.90800
C947        C  0.14932062  0.46663115  0.61397877     0.90900
C948        C  0.15057578  0.32551029  0.60966144     0.91000
O949        O  0.43748627  0.14149200  0.57428371    -0.71300
O950        O  0.33466543  0.14063752  0.54021957    -0.71300
O951        O  0.38680845  0.08791483  0.55637898    -0.71400
O952        O  0.38528777  0.19420896  0.55852204    -0.71400
O953        O  0.40201974  0.19616170  0.65489142    -0.71400
O954        O  0.40352631  0.08934170  0.65283071    -0.71300
O955        O  0.35147685  0.14237246  0.63665511    -0.71300
O956        O  0.45393237  0.14321569  0.67061516    -0.71400
Ni957      Ni  0.38545135  0.14098452  0.55984847     1.25400
Ni958      Ni  0.40330807  0.14283652  0.65120218     1.25400
C959        C  0.46247737  0.14260985  0.54453568     0.90900
C960        C  0.32633313  0.14134604  0.66616397     0.90800
C961        C  0.39548590  0.07123138  0.52108583     0.90900
C962        C  0.39364026  0.21254479  0.52386263     0.91000
O963        O  0.10625604  0.14371495  0.55435177    -0.71300
O964        O  0.20913034  0.14184781  0.58811522    -0.71300
O965        O  0.15715991  0.08962838  0.56965281    -0.71400
O966        O  0.15825115  0.19587734  0.57250061    -0.71400
O967        O  0.14161567  0.19409839  0.64286094    -0.71400
O968        O  0.14048117  0.08746918  0.63998613    -0.71300
O969        O  0.19242768  0.13982434  0.49175588    -0.71300
O970        O  0.08986133  0.14176756  0.62477213    -0.71400
Ni971      Ni  0.15831029  0.14281218  0.56864201     1.25400
Ni972      Ni  0.14052692  0.14072593  0.64405173     1.25400
C973        C  0.08130316  0.14307757  0.58415661     0.90900
C974        C  0.21748943  0.14070726  0.62884064     0.90800
C975        C  0.14842324  0.07120999  0.60413280     0.90900
C976        C  0.15003665  0.21233518  0.60807784     0.91000
O977        O  0.64610262  0.43472462  0.53130734    -0.71300
O978        O  0.64444542  0.33198786  0.66453057    -0.71300
O979        O  0.69838857  0.38287549  0.67990775    -0.71400
O980        O  0.59212260  0.38377162  0.51641649    -0.71400
O981        O  0.59014426  0.40100430  0.61268896    -0.71400
O982        O  0.69698772  0.40004643  0.60949696    -0.71300
O983        O  0.64277505  0.34928325  0.59420150    -0.71300
O984        O  0.64442293  0.45162029  0.62749316    -0.71400
Ni985      Ni  0.64533089  0.38271875  0.51720341     1.25400
Ni986      Ni  0.64351889  0.40106495  0.60843114     1.25400
C987        C  0.64555782  0.45992408  0.66806420     0.90900
C988        C  0.64346107  0.32391936  0.62382032     0.90800
C989        C  0.71506587  0.39141711  0.64430443     0.90900
C990        C  0.57373633  0.39275683  0.64864840     0.91000
O991        O  0.64522753  0.10446369  0.51230190    -0.71300
O992        O  0.64399972  0.20716613  0.54587928    -0.71300
O993        O  0.69778072  0.15647145  0.52899474    -0.71400
O994        O  0.59146052  0.15516286  0.52873555    -0.71400
O995        O  0.59126888  0.13789726  0.59913813    -0.71400
O996        O  0.69802437  0.13925067  0.59941391    -0.71300
O997        O  0.64402881  0.18982083  0.61621684    -0.71300
O998        O  0.64528661  0.08752949  0.58278208    -0.71400
Ni999      Ni  0.64460476  0.15645544  0.52646764     1.25400
Ni1000     Ni  0.64466337  0.13805261  0.60192266     1.25400
C1001       C  0.64544854  0.07925378  0.54218665     0.90900
C1002       C  0.64382613  0.21520414  0.58661185     0.90800
C1003       C  0.71526254  0.14790963  0.56413809     0.90900
C1004       C  0.57400735  0.14608871  0.56365241     0.91000
O1005       O  0.89901777  0.43550808  0.59516904    -0.71300
O1006       O  0.89997880  0.33250190  0.62904588    -0.71300
O1007       O  0.84630479  0.38333028  0.61094589    -0.71400
O1008       O  0.95272586  0.38461568  0.61297230    -0.71400
O1009       O  0.95208847  0.40076121  0.51665984    -0.71400
O1010       O  0.84529351  0.39954063  0.51458347    -0.71300
O1011       O  0.89908865  0.34875461  0.53266418    -0.71300
O1012       O  0.89820991  0.45141057  0.49892172    -0.71400
Ni1013     Ni  0.89955898  0.38340136  0.60951895     1.25400
Ni1014     Ni  0.89863697  0.40066919  0.51824665     1.25400
C1015       C  0.89831053  0.46024454  0.62496304     0.90900
C1016       C  0.89969038  0.32387399  0.50309317     0.90800
C1017       C  0.82841088  0.39138145  0.64569526     0.90900
C1018       C  0.96978938  0.39296911  0.64830286     0.91000
O1019       O  0.89807746  0.10367934  0.61593190    -0.71300
O1020       O  0.89962651  0.20650846  0.58139177    -0.71300
O1021       O  0.84573583  0.15580274  0.59817128    -0.71400
O1022       O  0.95204458  0.15444934  0.59947379    -0.71400
O1023       O  0.95271408  0.13789423  0.52924008    -0.71400
O1024       O  0.84595324  0.13923279  0.52793415    -0.71300
O1025       O  0.90000082  0.18990619  0.67786040    -0.71300
O1026       O  0.89852835  0.08737770  0.54562474    -0.71400
Ni1027     Ni  0.89888289  0.15571084  0.60124634     1.25400
Ni1028     Ni  0.89933321  0.13803380  0.52595341     1.25400
C1029       C  0.89793786  0.07878087  0.58631461     0.90900
C1030       C  0.89998320  0.21491774  0.54060182     0.90800
C1031       C  0.82848666  0.14762609  0.56294080     0.90900
C1032       C  0.96973828  0.14583561  0.56477389     0.91000
O1033       O  0.60525579  0.64371690  0.63728509    -0.71300
O1034       O  0.70838178  0.64230461  0.50389227    -0.71300
O1035       O  0.65647794  0.58980207  0.65277268    -0.71400
O1036       O  0.65719481  0.69616174  0.65466545    -0.71400
O1037       O  0.64081727  0.69484006  0.55835124    -0.71400
O1038       O  0.64009338  0.58802386  0.55652412    -0.71300
O1039       O  0.69185253  0.64079020  0.57426562    -0.71300
O1040       O  0.58920736  0.64216061  0.54108416    -0.71400
Ni1041     Ni  0.65742171  0.64303085  0.65130979     1.25400
Ni1042     Ni  0.63994000  0.64139426  0.56009419     1.25400
C1043       C  0.58045794  0.64324876  0.50052436     0.90900
C1044       C  0.71687272  0.64141006  0.54459880     0.90800
C1045       C  0.64803644  0.57151863  0.52080396     0.90900
C1046       C  0.64900883  0.71287782  0.52332644     0.91000
O1047       O  0.93595139  0.64251113  0.65920141    -0.71300
O1048       O  0.83347570  0.64135396  0.62356261    -0.71300
O1049       O  0.88554583  0.58882709  0.64128196    -0.71400
O1050       O  0.88385418  0.69506648  0.64183874    -0.71400
O1051       O  0.90140228  0.69623555  0.57177622    -0.71400
O1052       O  0.90312448  0.58957137  0.57122689    -0.71300
O1053       O  0.85110610  0.64232952  0.55355665    -0.71300
O1054       O  0.95324796  0.64350040  0.58907422    -0.71400
Ni1055     Ni  0.88406296  0.64189398  0.64396450     1.25400
Ni1056     Ni  0.90281053  0.64295464  0.56887798     1.25400
C1057       C  0.96129719  0.64317763  0.62985372     0.90900
C1058       C  0.82562400  0.64166947  0.58268033     0.90800
C1059       C  0.89480699  0.57185498  0.60639803     0.90900
C1060       C  0.89247915  0.71299797  0.60699222     0.91000
O1061       O  0.60487108  0.89571317  0.57457415    -0.71300
O1062       O  0.70781620  0.89722870  0.54144923    -0.71300
O1063       O  0.65582862  0.94968429  0.55847560    -0.71400
O1064       O  0.65692060  0.84330825  0.55790406    -0.71400
O1065       O  0.64031659  0.84396947  0.65419282    -0.71400
O1066       O  0.63917794  0.95079317  0.65471916    -0.71300
O1067       O  0.69109738  0.89809769  0.63773943    -0.71300
O1068       O  0.58851982  0.89656765  0.67076187    -0.71400
Ni1069     Ni  0.65695870  0.89647754  0.56061191     1.25400
Ni1070     Ni  0.63921173  0.89739171  0.65181000     1.25400
C1071       C  0.57994758  0.89579362  0.54459573     0.90900
C1072       C  0.71617751  0.89785620  0.66747447     0.90800
C1073       C  0.64727555  0.96763318  0.52354004     0.90900
C1074       C  0.64867827  0.82625855  0.68943158     0.91000
O1075       O  0.93585814  0.89592869  0.55562932    -0.71300
O1076       O  0.83315798  0.89748051  0.58971525    -0.71300
O1077       O  0.88528806  0.94982996  0.57175003    -0.71400
O1078       O  0.88371748  0.84359138  0.57323016    -0.71400
O1079       O  0.90078913  0.84339127  0.64354801    -0.71400
O1080       O  0.90237441  0.95008470  0.64205619    -0.71300
O1081       O  0.85034564  0.89750206  0.49328271    -0.71300
O1082       O  0.95267465  0.89594209  0.62600841    -0.71400
Ni1083     Ni  0.88387565  0.89672379  0.57007971     1.25400
Ni1084     Ni  0.90210599  0.89672477  0.64544383     1.25400
C1085       C  0.96099750  0.89564423  0.58535641     0.90900
C1086       C  0.82502789  0.89769448  0.63047172     0.90800
C1087       C  0.89428576  0.96730221  0.60642777     0.90900
C1088       C  0.89216245  0.82614165  0.60851315     0.91000
C1089       C  0.78670951  0.89806598  0.64351241    -0.10100
C1090       C  0.75457332  0.89812381  0.65474444    -0.11700
C1091       C  0.89214374  0.78630430  0.60850566    -0.10100
C1092       C  0.89225117  0.75282668  0.60762793    -0.11700
C1093       C  0.64886384  0.75279668  0.52349784    -0.10100
C1094       C  0.64876605  0.78633998  0.52287488    -0.11700
C1095       C  0.75529395  0.64123901  0.55747431    -0.10100
C1096       C  0.78738919  0.64133801  0.56906060    -0.11700
C1097       C  0.89689533  0.04023061  0.59855790    -0.10100
C1098       C  0.89572869  0.00710239  0.60463050    -0.11700
C1099       C  0.89742135  0.49886131  0.61302314    -0.10100
C1100       C  0.89628611  0.53204724  0.60744340    -0.11700
C1101       C  0.90002000  0.28545908  0.51605256    -0.10100
C1102       C  0.90015264  0.25327907  0.52741335    -0.11700
C1103       C  0.64592059  0.04069624  0.53041572    -0.10100
C1104       C  0.64644406  0.00753180  0.52486078    -0.11700
C1105       C  0.75512180  0.14787220  0.56374907    -0.10100
C1106       C  0.78862732  0.14776724  0.56295136    -0.11700
C1107       C  0.64635612  0.49849189  0.67982219    -0.10100
C1108       C  0.64711450  0.53162991  0.51897572    -0.11700
C1109       C  0.75497103  0.39142062  0.64372845    -0.10100
C1110       C  0.78850845  0.39137077  0.64457941    -0.11700
C1111       C  0.64344734  0.25352522  0.59955924    -0.10100
C1112       C  0.64330074  0.28558781  0.61090730    -0.11700
C1113       C  0.04273012  0.14393318  0.57222073    -0.10100
C1114       C  0.00957415  0.14476075  0.56639455    -0.11700
C1115       C  0.50102615  0.14350146  0.55655342    -0.10100
C1116       C  0.53417860  0.14465217  0.56229596    -0.11700
C1117       C  0.28799506  0.14088236  0.65311342    -0.10100
C1118       C  0.25585688  0.14060791  0.64178674    -0.11700
C1119       C  0.04300935  0.39433680  0.64336107    -0.10100
C1120       C  0.00970598  0.39378300  0.64804830    -0.11700
C1121       C  0.15022706  0.25217323  0.60879823    -0.10100
C1122       C  0.15041857  0.28567195  0.60890096    -0.11700
C1123       C  0.50090181  0.39486937  0.49119587    -0.10100
C1124       C  0.53389334  0.39397755  0.65114736    -0.11700
C1125       C  0.39391921  0.28592896  0.52690255    -0.10100
C1126       C  0.39374274  0.25243223  0.52526065    -0.11700
C1127       C  0.28916133  0.39738479  0.56635573    -0.10100
C1128       C  0.25708696  0.39739163  0.57791744    -0.11700
C1129       C  0.14708116  0.03143629  0.60192210    -0.10100
C1130       C  0.14584586  0.99837328  0.59607514    -0.11700
C1131       C  0.03262716  0.89403214  0.56721759    -0.10100
C1132       C  0.99951407  0.89487395  0.57327613    -0.11700
C1133       C  0.14791560  0.50640199  0.61626741    -0.10100
C1134       C  0.14650929  0.53948438  0.62192909    -0.11700
C1135       C  0.99974187  0.64361210  0.64250791    -0.10100
C1136       C  0.03284132  0.64417516  0.64892438    -0.11700
C1137       C  0.14150185  0.78530640  0.52968952    -0.10100
C1138       C  0.14154884  0.75308758  0.51918370    -0.11700
C1139       C  0.39638149  0.03131737  0.52151749    -0.10100
C1140       C  0.39682027  0.99806371  0.52709755    -0.11700
C1141       C  0.54134522  0.89476519  0.55625998    -0.10100
C1142       C  0.50817380  0.89366686  0.56180187    -0.11700
C1143       C  0.28713925  0.89103067  0.56272689    -0.10100
C1144       C  0.25361855  0.89098076  0.56200135    -0.11700
C1145       C  0.39753181  0.54034057  0.52081090    -0.10100
C1146       C  0.39701435  0.50712167  0.52673992    -0.11700
C1147       C  0.54178408  0.64414245  0.48892439    -0.10100
C1148       C  0.50847914  0.64509320  0.65063803    -0.11700
C1149       C  0.25392989  0.64737330  0.48863172    -0.10100
C1150       C  0.28739519  0.64745574  0.65431515    -0.11700
C1151       C  0.39823327  0.75329365  0.61366821    -0.10100
C1152       C  0.39827318  0.78532376  0.60146669    -0.11700
O1153       O  0.39835818  0.60414815  0.70424767    -0.71300
O1154       O  0.39866292  0.70690225  0.66840875    -0.71300
O1155       O  0.34532336  0.65601475  0.68765965    -0.71400
O1156       O  0.45169003  0.65508985  0.68542042    -0.71400
O1157       O  0.45077692  0.63788285  0.78205762    -0.71400
O1158       O  0.34399350  0.63882262  0.78429466    -0.71300
O1159       O  0.39751641  0.68958841  0.76510960    -0.71300
O1160       O  0.39721013  0.58726711  0.80080355    -0.71400
Ni1161     Ni  0.39856273  0.65616651  0.68893410     1.25400
Ni1162     Ni  0.39732250  0.63781372  0.78055101     1.25400
C1163       C  0.39773103  0.57893284  0.84157681     0.90900
C1164       C  0.39815088  0.71493874  0.79413770     0.90800
C1165       C  0.32730241  0.64742927  0.81975400     0.90900
C1166       C  0.46862737  0.64615543  0.81692156     0.91000
O1167       O  0.39712956  0.93432030  0.67719384    -0.71300
O1168       O  0.39798345  0.83160644  0.71325661    -0.71300
O1169       O  0.34437925  0.88248205  0.69498543    -0.71400
O1170       O  0.45073216  0.88339104  0.69501000    -0.71400
O1171       O  0.45110181  0.90066431  0.76499664    -0.71400
O1172       O  0.34431776  0.89973058  0.76498239    -0.71300
O1173       O  0.39812816  0.84898311  0.78317143    -0.71300
O1174       O  0.39726269  0.95123436  0.74727826    -0.71400
Ni1175     Ni  0.39756377  0.88231497  0.69261289     1.25400
Ni1176     Ni  0.39769978  0.90073090  0.76762294     1.25400
C1177       C  0.39708092  0.95952241  0.70649304     0.90900
C1178       C  0.39814234  0.82359050  0.75418837     0.90800
C1179       C  0.32698071  0.89106365  0.72988731     0.90900
C1180       C  0.46828377  0.89238817  0.72976679     0.91000
O1181       O  0.14510200  0.60281820  0.76911089    -0.71300
O1182       O  0.14282664  0.70591164  0.80013108    -0.71300
O1183       O  0.19707315  0.65523864  0.78583445    -0.71400
O1184       O  0.09077199  0.65354419  0.78302393    -0.71400
O1185       O  0.08936134  0.63749201  0.68714833    -0.71400
O1186       O  0.19617949  0.63917775  0.68996367    -0.71300
O1187       O  0.14169585  0.68978525  0.70422381    -0.71300
O1188       O  0.14394357  0.58700460  0.67329461    -0.71400
Ni1189     Ni  0.14395451  0.65495941  0.78200609     1.25400
Ni1190     Ni  0.14274406  0.63781870  0.69122518     1.25400
C1191       C  0.14505399  0.57812459  0.79955933     0.90900
C1192       C  0.14196047  0.71461343  0.67398424     0.90800
C1193       C  0.21398572  0.64732969  0.65490712     0.90900
C1194       C  0.07269105  0.64516487  0.65110556     0.91000
O1195       O  0.14465677  0.93488856  0.78151796    -0.71300
O1196       O  0.14265819  0.83207407  0.74929270    -0.71300
O1197       O  0.19678035  0.88274280  0.76451507    -0.71400
O1198       O  0.09046832  0.88418797  0.76664858    -0.71400
O1199       O  0.08912857  0.90080345  0.69605184    -0.71400
O1200       O  0.19594266  0.89935754  0.86054738    -0.71300
O1201       O  0.14158929  0.84875586  0.84538557    -0.71300
O1202       O  0.14354544  0.95126828  0.71085687    -0.71400
Ni1203     Ni  0.14365409  0.88286621  0.76800586     1.25400
Ni1204     Ni  0.14249166  0.90060886  0.69232780     1.25400
C1205       C  0.14455169  0.95982649  0.75135082     0.90900
C1206       C  0.14186375  0.82368391  0.70869895     0.90800
C1207       C  0.21370725  0.89098038  0.72898043     0.90900
C1208       C  0.07243718  0.89285266  0.73190620     0.91000
O1209       O  0.43688121  0.39637088  0.80835649    -0.71300
O1210       O  0.33471027  0.39749244  0.67809431    -0.71300
O1211       O  0.38648665  0.45014726  0.65980910    -0.71400
O1212       O  0.38502839  0.34383160  0.65948604    -0.71400
O1213       O  0.40323531  0.34273142  0.72939454    -0.71400
O1214       O  0.40469948  0.44960309  0.72971515    -0.71300
O1215       O  0.35299280  0.39664598  0.74795235    -0.71300
O1216       O  0.45483317  0.39560708  0.71163721    -0.71400
Ni1217     Ni  0.38512240  0.39702877  0.65728949     1.25400
Ni1218     Ni  0.40456196  0.39611736  0.73219997     1.25400
C1219       C  0.46251449  0.39575115  0.67079964     0.90900
C1220       C  0.32722900  0.39720479  0.71903818     0.90800
C1221       C  0.39592647  0.46726573  0.69458256     0.90900
C1222       C  0.39401706  0.32589781  0.69425241     0.91000
O1223       O  0.10640852  0.39413574  0.82935821    -0.71300
O1224       O  0.20976255  0.39585835  0.79750731    -0.71300
O1225       O  0.15764586  0.44813199  0.81521868    -0.71400
O1226       O  0.15852365  0.34187922  0.81206688    -0.71400
O1227       O  0.14258904  0.34384434  0.74140616    -0.71400
O1228       O  0.14166748  0.45046066  0.74458435    -0.71300
O1229       O  0.19366384  0.39801752  0.72692766    -0.71300
O1230       O  0.09078552  0.39626473  0.75862527    -0.71400
Ni1231     Ni  0.15868172  0.39493978  0.81607358     1.25400
Ni1232     Ni  0.14165123  0.39722048  0.74034520     1.25400
C1233       C  0.08175847  0.39493322  0.79904945     0.90900
C1234       C  0.21851152  0.39713752  0.75692225     0.90800
C1235       C  0.14925568  0.46663475  0.78063607     0.90900
C1236       C  0.15055904  0.32551345  0.77631005     0.91000
O1237       O  0.43743031  0.14158421  0.74100474    -0.71300
O1238       O  0.33461537  0.14069868  0.70692103    -0.71300
O1239       O  0.38675804  0.08798513  0.72314009    -0.71400
O1240       O  0.38522713  0.19428779  0.72518475    -0.71400
O1241       O  0.40196908  0.19612979  0.82158182    -0.71400
O1242       O  0.40355283  0.08931580  0.81943985    -0.71300
O1243       O  0.35145764  0.14231523  0.80332401    -0.71300
O1244       O  0.45391952  0.14321531  0.83724437    -0.71400
Ni1245     Ni  0.38539687  0.14106170  0.72656028     1.25400
Ni1246     Ni  0.40329242  0.14280915  0.81785125     1.25400
C1247       C  0.46242575  0.14268452  0.71126096     0.90900
C1248       C  0.32632195  0.14125663  0.83284092     0.90800
C1249       C  0.39544302  0.07127633  0.68786555     0.90900
C1250       C  0.39358068  0.21260208  0.69050955     0.91000
O1251       O  0.10624448  0.14373381  0.72102389    -0.71300
O1252       O  0.20911821  0.14180477  0.75479877    -0.71300
O1253       O  0.15711637  0.08961704  0.73634141    -0.71400
O1254       O  0.15827159  0.19586723  0.73916615    -0.71400
O1255       O  0.14162915  0.19410842  0.80952431    -0.71400
O1256       O  0.14043230  0.08747775  0.80667342    -0.71300
O1257       O  0.19239679  0.13987192  0.65841972    -0.71300
O1258       O  0.08984444  0.14180675  0.79144273    -0.71400
Ni1259     Ni  0.15829902  0.14280025  0.73531984     1.25400
Ni1260     Ni  0.14050933  0.14073623  0.81072742     1.25400
C1261       C  0.08128861  0.14311669  0.75082625     0.90900
C1262       C  0.21747398  0.14066166  0.79552520     0.90800
C1263       C  0.14836896  0.07120832  0.77082467     0.90900
C1264       C  0.15005902  0.21233568  0.77473719     0.91000
O1265       O  0.64607049  0.43472563  0.69795949    -0.71300
O1266       O  0.64444625  0.33202353  0.83117893    -0.71300
O1267       O  0.69838247  0.38292280  0.84653114    -0.71400
O1268       O  0.59207080  0.38379384  0.68306774    -0.71400
O1269       O  0.59011802  0.40102286  0.77935272    -0.71400
O1270       O  0.69696097  0.40009368  0.77612073    -0.71300
O1271       O  0.64275628  0.34931346  0.76084929    -0.71300
O1272       O  0.64439002  0.45165598  0.79413324    -0.71400
Ni1273     Ni  0.64527993  0.38271617  0.68386873     1.25400
Ni1274     Ni  0.64349139  0.40109830  0.77507425     1.25400
C1275       C  0.64554316  0.45996074  0.83470383     0.90900
C1276       C  0.64345407  0.32395082  0.79046997     0.90800
C1277       C  0.71504873  0.39146710  0.81092239     0.90900
C1278       C  0.57372363  0.39277172  0.81531969     0.91000
O1279       O  0.64514760  0.10447212  0.67898235    -0.71300
O1280       O  0.64397478  0.20718188  0.71254813    -0.71300
O1281       O  0.69773328  0.15645854  0.69565071    -0.71400
O1282       O  0.59140749  0.15520039  0.69543128    -0.71400
O1283       O  0.59122765  0.13794129  0.76583554    -0.71400
O1284       O  0.69798749  0.13924363  0.76607092    -0.71300
O1285       O  0.64401591  0.18984341  0.78288714    -0.71300
O1286       O  0.64521750  0.08754352  0.74946368    -0.71400
Ni1287     Ni  0.64455322  0.15646731  0.69314328     1.25400
Ni1288     Ni  0.64462393  0.13807129  0.76859921     1.25400
C1289       C  0.64536531  0.07926304  0.70886891     0.90900
C1290       C  0.64381283  0.21522515  0.75327962     0.90800
C1291       C  0.71522239  0.14789019  0.73078804     0.90900
C1292       C  0.57395926  0.14613928  0.73035664     0.91000
O1293       O  0.89902687  0.43548287  0.76185021    -0.71300
O1294       O  0.89994993  0.33248508  0.79575350    -0.71300
O1295       O  0.84629454  0.38332500  0.77761129    -0.71400
O1296       O  0.95271211  0.38457970  0.77969408    -0.71400
O1297       O  0.95207818  0.40080415  0.68331871    -0.71400
O1298       O  0.84527545  0.39954360  0.68128009    -0.71300
O1299       O  0.89909328  0.34877801  0.69935076    -0.71300
O1300       O  0.89817231  0.45143138  0.66559376    -0.71400
Ni1301     Ni  0.89954805  0.38337966  0.77621373     1.25400
Ni1302     Ni  0.89862284  0.40069204  0.68492509     1.25400
C1303       C  0.89831517  0.46022511  0.79163705     0.90900
C1304       C  0.89968740  0.32389400  0.66978312     0.90800
C1305       C  0.82838939  0.39139327  0.81234645     0.90900
C1306       C  0.96976405  0.39293686  0.81503058     0.91000
O1307       O  0.89808064  0.10366029  0.78256373    -0.71300
O1308       O  0.89956960  0.20650504  0.74806504    -0.71300
O1309       O  0.84570209  0.15575991  0.76481843    -0.71400
O1310       O  0.95201653  0.15447059  0.76613291    -0.71400
O1311       O  0.95270166  0.13794125  0.69589101    -0.71400
O1312       O  0.84593420  0.13921149  0.69457480    -0.71300
O1313       O  0.89999234  0.18990797  0.84457609    -0.71300
O1314       O  0.89854898  0.08738163  0.71224937    -0.71400
Ni1315     Ni  0.89885219  0.15569899  0.76789916     1.25400
Ni1316     Ni  0.89931895  0.13804656  0.69259897     1.25400
C1317       C  0.89796618  0.07876984  0.75293581     0.90900
C1318       C  0.89993195  0.21492819  0.70727821     0.90800
C1319       C  0.82845805  0.14758659  0.72958232     0.90900
C1320       C  0.96971913  0.14587954  0.73143074     0.91000
O1321       O  0.60529741  0.64373243  0.80394799    -0.71300
O1322       O  0.70835675  0.64231764  0.67057635    -0.71300
O1323       O  0.65652881  0.58983243  0.81943793    -0.71400
O1324       O  0.65722895  0.69618848  0.82131992    -0.71400
O1325       O  0.64080668  0.69481722  0.72510017    -0.71400
O1326       O  0.64008209  0.58800304  0.72319125    -0.71300
O1327       O  0.69184486  0.64075692  0.74095412    -0.71300
O1328       O  0.58918767  0.64214808  0.70781074    -0.71400
Ni1329     Ni  0.65746473  0.64305945  0.81797145     1.25400
Ni1330     Ni  0.63992808  0.64137050  0.72680155     1.25400
C1331       C  0.58042504  0.64325710  0.66725488     0.90900
C1332       C  0.71685839  0.64139535  0.71128019     0.90800
C1333       C  0.64802267  0.57151687  0.68745826     0.90900
C1334       C  0.64898750  0.71287411  0.69008550     0.91000
O1335       O  0.93595959  0.64250111  0.82585017    -0.71300
O1336       O  0.83347479  0.64130770  0.79023094    -0.71300
O1337       O  0.88556794  0.58879953  0.80794296    -0.71400
O1338       O  0.88383463  0.69503723  0.80849738    -0.71400
O1339       O  0.90137130  0.69621167  0.73843126    -0.71400
O1340       O  0.90313719  0.58954832  0.73788456    -0.71300
O1341       O  0.85109628  0.64228710  0.72022223    -0.71300
O1342       O  0.95324491  0.64349646  0.75571995    -0.71400
Ni1343     Ni  0.88406645  0.64186515  0.81062402     1.25400
Ni1344     Ni  0.90280288  0.64293121  0.73553460     1.25400
C1345       C  0.96130181  0.64317571  0.79649746     0.90900
C1346       C  0.82561730  0.64162382  0.74934961     0.90800
C1347       C  0.89482877  0.57183012  0.77305734     0.90900
C1348       C  0.89244134  0.71297139  0.77364689     0.91000
O1349       O  0.60483518  0.89570944  0.74130482    -0.71300
O1350       O  0.70777853  0.89725602  0.70816009    -0.71300
O1351       O  0.65576735  0.94969817  0.72517551    -0.71400
O1352       O  0.65690629  0.84332130  0.72465523    -0.71400
O1353       O  0.64036107  0.84400363  0.82085374    -0.71400
O1354       O  0.63920950  0.95082332  0.82143278    -0.71300
O1355       O  0.69113213  0.89814544  0.80443095    -0.71300
O1356       O  0.58856073  0.89658599  0.83744261    -0.71400
Ni1357     Ni  0.65692227  0.89649172  0.72733524     1.25400
Ni1358     Ni  0.63925012  0.89742533  0.81849651     1.25400
C1359       C  0.57990916  0.89577068  0.71132867     0.90900
C1360       C  0.71620937  0.89789713  0.83416762     0.90800
C1361       C  0.64720183  0.96763370  0.69023473     0.90900
C1362       C  0.64871917  0.82628203  0.85608599     0.91000
O1363       O  0.93583303  0.89585898  0.72224241    -0.71300
O1364       O  0.83315038  0.89750366  0.75636926    -0.71300
O1365       O  0.88531768  0.94980716  0.73837061    -0.71400
O1366       O  0.88365362  0.84356788  0.73987158    -0.71400
O1367       O  0.90074768  0.84336378  0.81018173    -0.71400
O1368       O  0.90242912  0.95005905  0.80866792    -0.71300
O1369       O  0.85030348  0.89748967  0.65997996    -0.71300
O1370       O  0.95266971  0.89586607  0.79261536    -0.71400
Ni1371     Ni  0.88385795  0.89670060  0.73671172     1.25400
Ni1372     Ni  0.90211302  0.89669714  0.81206812     1.25400
C1373       C  0.96097860  0.89556115  0.75196104     0.90900
C1374       C  0.82503728  0.89772870  0.79712938     0.90800
C1375       C  0.89434208  0.96727897  0.77303944     0.90900
C1376       C  0.89209779  0.82611597  0.77515334     0.91000
C1377       C  0.78672915  0.89811968  0.81018967    -0.10100
C1378       C  0.75460000  0.89817704  0.82143724    -0.11700
C1379       C  0.89206455  0.78627811  0.77514921    -0.10100
C1380       C  0.89218441  0.75280027  0.77427667    -0.11700
C1381       C  0.64884749  0.75279277  0.69028606    -0.10100
C1382       C  0.64875342  0.78633602  0.68966262    -0.11700
C1383       C  0.75528363  0.64121076  0.72414657    -0.10100
C1384       C  0.78737978  0.64129703  0.73573351    -0.11700
C1385       C  0.89695856  0.04021201  0.76516338    -0.10100
C1386       C  0.89580418  0.00708110  0.77123420    -0.11700
C1387       C  0.89744178  0.49883860  0.77968641    -0.10100
C1388       C  0.89631287  0.53202364  0.77410184    -0.11700
C1389       C  0.90000153  0.28547779  0.68274732    -0.10100
C1390       C  0.90011209  0.25329546  0.69410447    -0.11700
C1391       C  0.64582388  0.04070160  0.69709976    -0.10100
C1392       C  0.64635074  0.00753532  0.69154424    -0.11700
C1393       C  0.75508590  0.14783269  0.73038552    -0.10100
C1394       C  0.78859420  0.14771912  0.72958612    -0.11700
C1395       C  0.64635944  0.49852734  0.84646378    -0.10100
C1396       C  0.64711027  0.53162866  0.68560821    -0.11700
C1397       C  0.75495231  0.39147084  0.81033647    -0.10100
C1398       C  0.78848875  0.39140645  0.81120269    -0.11700
C1399       C  0.64344297  0.25354984  0.76622164    -0.10100
C1400       C  0.64329722  0.28561600  0.77756216    -0.11700
C1401       C  0.04271432  0.14399072  0.73888702    -0.10100
C1402       C  0.00955769  0.14482062  0.73305746    -0.11700
C1403       C  0.50097402  0.14358108  0.72328301    -0.10100
C1404       C  0.53412843  0.14472325  0.72901704    -0.11700
C1405       C  0.28798029  0.14078913  0.81980187    -0.10100
C1406       C  0.25584133  0.14053115  0.80847612    -0.11700
C1407       C  0.04298077  0.39430225  0.81009380    -0.10100
C1408       C  0.00967965  0.39374583  0.81479109    -0.11700
C1409       C  0.15025130  0.25217495  0.77544485    -0.10100
C1410       C  0.15042704  0.28567429  0.77554473    -0.11700
C1411       C  0.50085584  0.39494408  0.65784582    -0.10100
C1412       C  0.53388201  0.39396768  0.81783370    -0.11700
C1413       C  0.39385427  0.28599141  0.69349526    -0.10100
C1414       C  0.39367766  0.25249288  0.69186992    -0.11700
C1415       C  0.28909472  0.39744004  0.73294804    -0.10100
C1416       C  0.25702040  0.39743950  0.74450754    -0.11700
C1417       C  0.14701382  0.03143365  0.76862270    -0.10100
C1418       C  0.14577998  0.99837014  0.76277656    -0.11700
C1419       C  0.03260177  0.89396351  0.73383813    -0.10100
C1420       C  0.99948797  0.89478422  0.73987290    -0.11700
C1421       C  0.14786369  0.50640612  0.78291983    -0.10100
C1422       C  0.14648262  0.53949005  0.78857688    -0.11700
C1423       C  0.99975109  0.64361993  0.80914329    -0.10100
C1424       C  0.03285241  0.64418792  0.81555672    -0.11700
C1425       C  0.14145569  0.78530198  0.69640212    -0.10100
C1426       C  0.14148055  0.75308446  0.68589557    -0.11700
C1427       C  0.39633937  0.03135671  0.68833071    -0.10100
C1428       C  0.39677871  0.99809896  0.69390411    -0.11700
C1429       C  0.54130750  0.89473723  0.72299366    -0.10100
C1430       C  0.50813429  0.89364494  0.72852237    -0.11700
C1431       C  0.28710318  0.89102843  0.72946040    -0.10100
C1432       C  0.25358319  0.89097995  0.72874521    -0.11700
C1433       C  0.39745554  0.54040000  0.68751139    -0.10100
C1434       C  0.39693896  0.50718146  0.69342539    -0.11700
C1435       C  0.54174361  0.64416175  0.65567043    -0.10100
C1436       C  0.50851688  0.64505969  0.81729396    -0.11700
C1437       C  0.25387500  0.64742382  0.65530797    -0.10100
C1438       C  0.28742132  0.64743011  0.82095851    -0.11700
C1439       C  0.39824537  0.75325665  0.78029824    -0.10100
C1440       C  0.39826268  0.78529035  0.76809801    -0.11700
O1441       O  0.39838738  0.60410447  0.87090187    -0.71300
O1442       O  0.39869569  0.70686369  0.83504919    -0.71300
O1443       O  0.34535361  0.65597656  0.85430652    -0.71400
O1444       O  0.45172306  0.65504742  0.85207261    -0.71400
O1445       O  0.45076421  0.63786751  0.94873024    -0.71400
O1446       O  0.34398890  0.63886142  0.95096303    -0.71300
O1447       O  0.39753323  0.68959515  0.93177777    -0.71300
O1448       O  0.39717016  0.58728005  0.96747438    -0.71400
Ni1449     Ni  0.39859457  0.65612550  0.85558238     1.25400
Ni1450     Ni  0.39731252  0.63782422  0.94722052     1.25400
C1451       C  0.39768148  0.57894673  0.00824774     0.90900
C1452       C  0.39817822  0.71494436  0.96080597     0.90800
C1453       C  0.32730425  0.64747529  0.98642282     0.90900
C1454       C  0.46861503  0.64613585  0.98359483     0.91000
O1455       O  0.39720199  0.93427707  0.84380023    -0.71300
O1456       O  0.39802802  0.83158118  0.87990375    -0.71300
O1457       O  0.34443542  0.88245806  0.86159968    -0.71400
O1458       O  0.45078755  0.88334589  0.86165398    -0.71400
O1459       O  0.45114423  0.90063896  0.93163459    -0.71400
O1460       O  0.34436388  0.89973123  0.93158800    -0.71300
O1461       O  0.39815921  0.84897898  0.94981249    -0.71300
O1462       O  0.39732661  0.95121485  0.91387656    -0.71400
Ni1463     Ni  0.39762088  0.88227981  0.85924049     1.25400
Ni1464     Ni  0.39774487  0.90071975  0.93424343     1.25400
C1465       C  0.39715619  0.95948765  0.87308747     0.90900
C1466       C  0.39817901  0.82357943  0.92083837     0.90800
C1467       C  0.32703179  0.89105420  0.89649315     0.90900
C1468       C  0.46833121  0.89235058  0.89641326     0.91000
O1469       O  0.14512645  0.60282601  0.93577216    -0.71300
O1470       O  0.14286213  0.70592876  0.96676666    -0.71300
O1471       O  0.19709861  0.65524919  0.95248834    -0.71400
O1472       O  0.09080680  0.65356351  0.94966846    -0.71400
O1473       O  0.08937379  0.63750706  0.85378633    -0.71400
O1474       O  0.19619699  0.63917958  0.85660665    -0.71300
O1475       O  0.14171576  0.68979426  0.87086289    -0.71300
O1476       O  0.14394966  0.58701327  0.83993957    -0.71400
Ni1477     Ni  0.14398521  0.65497228  0.94865424     1.25400
Ni1478     Ni  0.14275858  0.63782780  0.85786628     1.25400
C1479       C  0.14506843  0.57813648  0.96622622     0.90900
C1480       C  0.14198206  0.71462160  0.84062285     0.90800
C1481       C  0.21400669  0.64732709  0.82155020     0.90900
C1482       C  0.07270456  0.64517903  0.81774205     0.91000
O1483       O  0.14473950  0.93487781  0.94819197    -0.71300
O1484       O  0.14269957  0.83207085  0.91594614    -0.71300
O1485       O  0.19684244  0.88272287  0.93114959    -0.71400
O1486       O  0.09052859  0.88420057  0.93334230    -0.71400
O1487       O  0.08916624  0.90082838  0.86275055    -0.71400
O1488       O  0.19594188  0.89940148  0.02721866    -0.71300
O1489       O  0.14160224  0.84878946  0.01202341    -0.71300
O1490       O  0.14360459  0.95126885  0.87753471    -0.71400
Ni1491     Ni  0.14371661  0.88285956  0.93466931     1.25400
Ni1492     Ni  0.14252882  0.90061466  0.85899605     1.25400
C1493       C  0.14462622  0.95981969  0.91802978     0.90900
C1494       C  0.14188869  0.82368769  0.87535071     0.90800
C1495       C  0.21375739  0.89096534  0.89560820     0.90900
C1496       C  0.07248561  0.89288554  0.89861465     0.91000
O1497       O  0.43685597  0.39641129  0.97498838    -0.71300
O1498       O  0.33470696  0.39743375  0.84479336    -0.71300
O1499       O  0.38648532  0.45008380  0.82649372    -0.71400
O1500       O  0.38501984  0.34376528  0.82620952    -0.71400
O1501       O  0.40322643  0.34268190  0.89611845    -0.71400
O1502       O  0.40469469  0.44955639  0.89640053    -0.71300
O1503       O  0.35298628  0.39660348  0.91465274    -0.71300
O1504       O  0.45482666  0.39555532  0.87834066    -0.71400
Ni1505     Ni  0.38511752  0.39696251  0.82399221     1.25400
Ni1506     Ni  0.40455549  0.39606957  0.89890366     1.25400
C1507       C  0.46250692  0.39569470  0.83750265     0.90900
C1508       C  0.32722440  0.39715881  0.88573631     0.90800
C1509       C  0.39592586  0.46721193  0.86126100     0.90900
C1510       C  0.39400274  0.32583968  0.86098414     0.91000
O1511       O  0.10639150  0.39411737  0.99599175    -0.71300
O1512       O  0.20974688  0.39585438  0.96417029    -0.71300
O1513       O  0.15762372  0.44812473  0.98187919    -0.71400
O1514       O  0.15850869  0.34186877  0.97870217    -0.71400
O1515       O  0.14258872  0.34384540  0.90803734    -0.71400
O1516       O  0.14166074  0.45046550  0.91124111    -0.71300
O1517       O  0.19366389  0.39802438  0.89358557    -0.71300
O1518       O  0.09078206  0.39625822  0.92525452    -0.71400
Ni1519     Ni  0.15866422  0.39493012  0.98272125     1.25400
Ni1520     Ni  0.14164949  0.39722313  0.90698832     1.25400
C1521       C  0.08174855  0.39491392  0.96567568     0.90900
C1522       C  0.21850430  0.39713662  0.92358840     0.90800
C1523       C  0.14923991  0.46663493  0.94729921     0.90900
C1524       C  0.15054655  0.32550804  0.94294065     0.91000
O1525       O  0.43743700  0.14153346  0.90763960    -0.71300
O1526       O  0.33461523  0.14059016  0.87359467    -0.71300
O1527       O  0.38680363  0.08790972  0.88975494    -0.71400
O1528       O  0.38519591  0.19420694  0.89188019    -0.71400
O1529       O  0.40196812  0.19614264  0.98820734    -0.71400
O1530       O  0.40353692  0.08932560  0.98608944    -0.71300
O1531       O  0.35144759  0.14233318  0.96995844    -0.71300
O1532       O  0.45391094  0.14322172  0.00387487    -0.71400
Ni1533     Ni  0.38540219  0.14098063  0.89321516     1.25400
Ni1534     Ni  0.40328268  0.14282053  0.98448625     1.25400
C1535       C  0.46242258  0.14266873  0.87788641     0.90900
C1536       C  0.32631037  0.14128516  0.99947345     0.90800
C1537       C  0.39549358  0.07122756  0.85446526     0.90900
C1538       C  0.39353502  0.21254507  0.85721750     0.91000
O1539       O  0.10620499  0.14368247  0.88768717    -0.71300
O1540       O  0.20909196  0.14182578  0.92142843    -0.71300
O1541       O  0.15711832  0.08960415  0.90300067    -0.71400
O1542       O  0.15820758  0.19585477  0.90579644    -0.71400
O1543       O  0.14158676  0.19410029  0.97616157    -0.71400
O1544       O  0.14045207  0.08746787  0.97333899    -0.71300
O1545       O  0.19237827  0.13985108  0.82510127    -0.71300
O1546       O  0.08982506  0.14176056  0.95811242    -0.71400
Ni1547     Ni  0.15826560  0.14278666  0.90196456     1.25400
Ni1548     Ni  0.14049633  0.14072624  0.97737865     1.25400
C1549       C  0.08125686  0.14305440  0.91749892     0.90900
C1550       C  0.21745818  0.14069077  0.96215302     0.90800
C1551       C  0.14839374  0.07119711  0.93749277     0.90900
C1552       C  0.15000279  0.21232605  0.94136820     0.91000
O1553       O  0.64606583  0.43476321  0.86459947    -0.71300
O1554       O  0.64444691  0.33203006  0.99778061    -0.71300
O1555       O  0.69836936  0.38293379  0.01318046    -0.71400
O1556       O  0.59207021  0.38382103  0.84973343    -0.71400
O1557       O  0.59011087  0.40104207  0.94598632    -0.71400
O1558       O  0.69695678  0.40013528  0.94277984    -0.71300
O1559       O  0.64276461  0.34935371  0.92746130    -0.71300
O1560       O  0.64436933  0.45167360  0.96081311    -0.71400
Ni1561     Ni  0.64527763  0.38275393  0.85051224     1.25400
Ni1562     Ni  0.64348622  0.40112869  0.94172091     1.25400
C1563       C  0.64550852  0.45995852  0.00138932     0.90900
C1564       C  0.64346049  0.32397856  0.95706603     0.90800
C1565       C  0.71504094  0.39149773  0.97758057     0.90900
C1566       C  0.57370943  0.39277419  0.98194414     0.91000
O1567       O  0.64515659  0.10447365  0.84566424    -0.71300
O1568       O  0.64396268  0.20719857  0.87915075    -0.71300
O1569       O  0.69772635  0.15647549  0.86231882    -0.71400
O1570       O  0.59140595  0.15520395  0.86205008    -0.71400
O1571       O  0.59120579  0.13798139  0.93246666    -0.71400
O1572       O  0.69795750  0.13930135  0.93275346    -0.71300
O1573       O  0.64397919  0.18989702  0.94950295    -0.71300
O1574       O  0.64520561  0.08758297  0.91615809    -0.71400
Ni1575     Ni  0.64455048  0.15647520  0.85978463     1.25400
Ni1576     Ni  0.64459739  0.13811986  0.93525529     1.25400
C1577       C  0.64536927  0.07928154  0.87557006     0.90900
C1578       C  0.64379104  0.21526170  0.91987576     0.90800
C1579       C  0.71520177  0.14793566  0.89747395     0.90900
C1580       C  0.57394920  0.14615961  0.89697484     0.91000
O1581       O  0.89903521  0.43550414  0.92851755    -0.71300
O1582       O  0.89992319  0.33248305  0.96234109    -0.71300
O1583       O  0.84628265  0.38335759  0.94424981    -0.71400
O1584       O  0.95270082  0.38456880  0.94631113    -0.71400
O1585       O  0.95204298  0.40078406  0.85003513    -0.71400
O1586       O  0.84524145  0.39955304  0.84794012    -0.71300
O1587       O  0.89904209  0.34877556  0.86605300    -0.71300
O1588       O  0.89815759  0.45142078  0.83226997    -0.71400
Ni1589     Ni  0.89953677  0.38339126  0.94284049     1.25400
Ni1590     Ni  0.89858750  0.40068614  0.85161455     1.25400
C1591       C  0.89833976  0.46023118  0.95832305     0.90900
C1592       C  0.89964962  0.32388617  0.83649258     0.90800
C1593       C  0.82838594  0.39141303  0.97899567     0.90900
C1594       C  0.96975980  0.39290009  0.98165105     0.91000
O1595       O  0.89800817  0.10366315  0.94927457    -0.71300
O1596       O  0.89957793  0.20650383  0.91478247    -0.71300
O1597       O  0.84567600  0.15580352  0.93153884    -0.71400
O1598       O  0.95198746  0.15442543  0.93283994    -0.71400
O1599       O  0.95265303  0.13789654  0.86259760    -0.71400
O1600       O  0.84589090  0.13926075  0.86129209    -0.71300
O1601       O  0.89998704  0.18985618  0.01119626    -0.71300
O1602       O  0.89845466  0.08738746  0.87895824    -0.71400
Ni1603     Ni  0.89882405  0.15569919  0.93461343     1.25400
Ni1604     Ni  0.89927041  0.13804983  0.85931101     1.25400
C1605       C  0.89786656  0.07877586  0.91964411     0.90900
C1606       C  0.89993540  0.21492783  0.87399644     0.90800
C1607       C  0.82842546  0.14764426  0.89630319     0.90900
C1608       C  0.96968024  0.14581926  0.89813607     0.91000
O1609       O  0.60526761  0.64371974  0.97061944    -0.71300
O1610       O  0.70840084  0.64235790  0.83723744    -0.71300
O1611       O  0.65647820  0.58980854  0.98611190    -0.71400
O1612       O  0.65721268  0.69616577  0.98796863    -0.71400
O1613       O  0.64084092  0.69484843  0.89175470    -0.71400
O1614       O  0.64013148  0.58803438  0.88985609    -0.71300
O1615       O  0.69189002  0.64079866  0.90761533    -0.71300
O1616       O  0.58922917  0.64216769  0.87447300    -0.71400
Ni1617     Ni  0.65743245  0.64303462  0.98462881     1.25400
Ni1618     Ni  0.63997118  0.64140200  0.89346313     1.25400
C1619       C  0.58046574  0.64326613  0.83391680     0.90900
C1620       C  0.71690374  0.64143970  0.87794099     0.90800
C1621       C  0.64806840  0.57154820  0.85412176     0.90900
C1622       C  0.64901927  0.71290246  0.85673725     0.91000
O1623       O  0.93601114  0.64253544  0.99249037    -0.71300
O1624       O  0.83353006  0.64135212  0.95687522    -0.71300
O1625       O  0.88561299  0.58883517  0.97461591    -0.71400
O1626       O  0.88390737  0.69507386  0.97510889    -0.71400
O1627       O  0.90144479  0.69621568  0.90504222    -0.71400
O1628       O  0.90317728  0.58955023  0.90455603    -0.71300
O1629       O  0.85114805  0.64230085  0.88686552    -0.71300
O1630       O  0.95329649  0.64349429  0.92235859    -0.71400
Ni1631     Ni  0.88412203  0.64190367  0.97726560     1.25400
Ni1632     Ni  0.90285648  0.64293388  0.90217479     1.25400
C1633       C  0.96135121  0.64319383  0.96313635     0.90900
C1634       C  0.82567001  0.64165768  0.91599484     0.90800
C1635       C  0.89487112  0.57184784  0.93974119     0.90900
C1636       C  0.89252540  0.71299116  0.94025068     0.91000
O1637       O  0.60487143  0.89570396  0.90798722    -0.71300
O1638       O  0.70781154  0.89727784  0.87485251    -0.71300
O1639       O  0.65579638  0.94970568  0.89188982    -0.71400
O1640       O  0.65694624  0.84333250  0.89131765    -0.71400
O1641       O  0.64032450  0.84398166  0.98751209    -0.71400
O1642       O  0.63922010  0.95080207  0.98805676    -0.71300
O1643       O  0.69110824  0.89809253  0.97102732    -0.71300
O1644       O  0.58855571  0.89658977  0.00413092    -0.71400
Ni1645     Ni  0.65695690  0.89649981  0.89402340     1.25400
Ni1646     Ni  0.63923446  0.89740231  0.98513940     1.25400
C1647       C  0.57994916  0.89576904  0.87800775     0.90900
C1648       C  0.71620525  0.89783658  0.00074063     0.90800
C1649       C  0.64723061  0.96765134  0.85695687     0.90900
C1650       C  0.64870422  0.82626467  0.02273993     0.91000
O1651       O  0.93588832  0.89593237  0.88891667    -0.71300
O1652       O  0.83317726  0.89745763  0.92294889    -0.71300
O1653       O  0.88529808  0.94982069  0.90502084    -0.71400
O1654       O  0.88375241  0.84358384  0.90647562    -0.71400
O1655       O  0.90080081  0.84337570  0.97680154    -0.71400
O1656       O  0.90235335  0.95006867  0.97533788    -0.71300
O1657       O  0.85032103  0.89750991  0.82662600    -0.71300
O1658       O  0.95267576  0.89594170  0.95930583    -0.71400
Ni1659     Ni  0.88390048  0.89671525  0.90333762     1.25400
Ni1660     Ni  0.90210232  0.89670816  0.97871243     1.25400
C1661       C  0.96101448  0.89564740  0.91865926     0.90900
C1662       C  0.82503535  0.89766189  0.96370185     0.90800
C1663       C  0.89427082  0.96728963  0.93970954     0.90900
C1664       C  0.89218981  0.82613083  0.94175829     0.91000
C1665       C  0.78671807  0.89802812  0.97672867    -0.10100
C1666       C  0.75458856  0.89809055  0.98797701    -0.11700
C1667       C  0.89217967  0.78629524  0.94174150    -0.10100
C1668       C  0.89229315  0.75281857  0.94086599    -0.11700
C1669       C  0.64887723  0.75281923  0.85693069    -0.10100
C1670       C  0.64878782  0.78636161  0.85630382    -0.11700
C1671       C  0.75533106  0.64125901  0.89080487    -0.10100
C1672       C  0.78743002  0.64134120  0.90238363    -0.11700
C1673       C  0.89683357  0.04022128  0.93186798    -0.10100
C1674       C  0.89568777  0.00709076  0.93792619    -0.11700
C1675       C  0.89747872  0.49885299  0.94639850    -0.10100
C1676       C  0.89635404  0.53203951  0.94081130    -0.11700
C1677       C  0.89997931  0.28547436  0.84946679    -0.10100
C1678       C  0.90010990  0.25329376  0.86082600    -0.11700
C1679       C  0.64584041  0.04071610  0.86382940    -0.10100
C1680       C  0.64637531  0.00755024  0.85828174    -0.11700
C1681       C  0.75506060  0.14789777  0.89709693    -0.10100
C1682       C  0.78856637  0.14779216  0.89631062    -0.11700
C1683       C  0.64631014  0.49851761  0.01316915    -0.10100
C1684       C  0.64713670  0.53166157  0.85226327    -0.11700
C1685       C  0.75494632  0.39150732  0.97700123    -0.10100
C1686       C  0.78848373  0.39143955  0.97786225    -0.11700
C1687       C  0.64343314  0.25358969  0.93279169    -0.10100
C1688       C  0.64330006  0.28565297  0.94413432    -0.11700
C1689       C  0.04267766  0.14390444  0.90557492    -0.10100
C1690       C  0.00951902  0.14473427  0.89975637    -0.11700
C1691       C  0.50096979  0.14358543  0.88989414    -0.10100
C1692       C  0.53412244  0.14473904  0.89562335    -0.11700
C1693       C  0.28796784  0.14082636  0.98642881    -0.10100
C1694       C  0.25582932  0.14057091  0.97509590    -0.11700
C1695       C  0.04297220  0.39426676  0.97670973    -0.10100
C1696       C  0.00967258  0.39370253  0.98140476    -0.11700
C1697       C  0.15020074  0.25216704  0.94207219    -0.10100
C1698       C  0.15039591  0.28566721  0.94217176    -0.11700
C1699       C  0.50084671  0.39490767  0.82454592    -0.10100
C1700       C  0.53386545  0.39398330  0.98445244    -0.11700
C1701       C  0.39382319  0.28593274  0.86024409    -0.10100
C1702       C  0.39363146  0.25243464  0.85861214    -0.11700
C1703       C  0.28909096  0.39740988  0.89964051    -0.10100
C1704       C  0.25701436  0.39742647  0.91118774    -0.11700
C1705       C  0.14706987  0.03142305  0.93530396    -0.10100
C1706       C  0.14585355  0.99835939  0.92946192    -0.11700
C1707       C  0.03264973  0.89403260  0.90057345    -0.10100
C1708       C  0.99953452  0.89487729  0.90660528    -0.11700
C1709       C  0.14785047  0.50640961  0.94959265    -0.10100
C1710       C  0.14648091  0.53949595  0.95525186    -0.11700
C1711       C  0.99979483  0.64364493  0.97578272    -0.10100
C1712       C  0.03289238  0.64421798  0.98220041    -0.11700
C1713       C  0.14147451  0.78530835  0.86304516    -0.10100
C1714       C  0.14150004  0.75309223  0.85253363    -0.11700
C1715       C  0.39641829  0.03131180  0.85490368    -0.10100
C1716       C  0.39686467  0.99805650  0.86047936    -0.11700
C1717       C  0.54135048  0.89471489  0.88966562    -0.10100
C1718       C  0.50817838  0.89360881  0.89518148    -0.11700
C1719       C  0.28715406  0.89101934  0.89606006    -0.10100
C1720       C  0.25363361  0.89096670  0.89535343    -0.11700
C1721       C  0.39747318  0.54035009  0.85417062    -0.10100
C1722       C  0.39694642  0.50713020  0.86008911    -0.11700
C1723       C  0.54178255  0.64414747  0.82233038    -0.10100
C1724       C  0.50850032  0.64503752  0.98396770    -0.11700
C1725       C  0.25389923  0.64741049  0.82195074    -0.10100
C1726       C  0.28742986  0.64747991  0.98763001    -0.11700
C1727       C  0.39828203  0.75325754  0.94696587    -0.10100
C1728       C  0.39829942  0.78528711  0.93476018    -0.11700
loop_ 
_geom_bond_atom_site_label_1 
_geom_bond_atom_site_label_2 
_geom_bond_distance 
_geom_bond_site_symmetry_2 
_ccdc_geom_bond_type 
O1           Ni9   1.924       .  S
O1         C1451   1.280       .  A
O2           Ni9   1.923       .  S
O2         C1452   1.280   1_554  A
O3           Ni9   1.913       .  S
O3         C1453   1.278   1_554  A
O4           Ni9   1.912       .  S
O4         C1454   1.278   1_554  A
O5          Ni10   1.921       .  S
O5           C14   1.280       .  A
O6          Ni10   1.920       .  S
O6           C13   1.280       .  A
O7          Ni10   1.916       .  S
O7           C12   1.278       .  A
O8          Ni10   1.914       .  S
O8           C11   1.278       .  A
Ni9       Ni1450   2.392   1_554  S
Ni10       Ni297   2.392       .  S
C11         O289   1.280       .  A
C11         C569   1.436       .  S
C12         O290   1.280       .  A
C12         C287   1.437       .  S
C13         O291   1.278       .  A
C13         C286   1.433       .  S
C14         O292   1.278       .  A
C14         C284   1.434       .  S
O15         Ni23   1.924       .  S
O15          C25   1.280       .  A
O16         Ni23   1.923       .  S
O16          C26   1.280       .  A
O17         Ni23   1.913       .  S
O17          C27   1.278       .  A
O18         Ni23   1.912       .  S
O18          C28   1.278       .  A
O19         Ni24   1.921       .  S
O19          C28   1.280       .  A
O20         Ni24   1.920       .  S
O20          C27   1.280       .  A
O21         Ni24   1.916       .  S
O21          C26   1.278       .  A
O22         Ni24   1.913       .  S
O22          C25   1.278       .  A
Ni23        Ni24   2.392       .  S
C25         C276   1.436       .  S
C26         C288   1.437       .  S
C27         C279   1.433       .  S
C28         C278   1.433       .  S
O29         Ni37   1.920       .  S
O29          C39   1.279       .  A
O30         Ni37   1.920       .  S
O30         C328   1.280       .  A
O31         Ni37   1.912       .  S
O31         C329   1.278       .  A
O32         Ni37   1.912       .  S
O32         C330   1.278       .  A
O33         Ni38   1.922       .  S
O33          C42   1.280   1_554  A
O34         Ni38   1.921       .  S
O34          C41   1.280   1_554  A
O35         Ni38   1.915       .  S
O35          C40   1.278       .  A
O36         Ni38   1.913       .  S
O36        C1479   1.278   1_554  A
Ni37       Ni326   2.393       .  S
Ni38      Ni1477   2.393   1_554  S
C39         O324   1.278       .  A
C39         C270   1.433       .  S
C40        O1470   1.280   1_554  A
C40         C274   1.434       .  S
C41        O1471   1.278       .  A
C41         C285   1.433       .  S
C42        O1472   1.278       .  A
C42        C1712   1.434       .  S
O43         Ni51   1.920       .  S
O43          C53   1.279       .  A
O44         Ni51   1.919       .  S
O44          C54   1.280       .  A
O45         Ni51   1.912       .  S
O45          C55   1.278       .  A
O46         Ni51   1.912       .  S
O46          C56   1.278       .  A
O47         Ni52   1.921       .  S
O47          C56   1.280       .  A
O48        Ni340   1.920       .  S
O48         C343   1.280       .  A
O49        Ni340   1.915       .  S
O49         C342   1.278       .  A
O50         Ni52   1.913       .  S
O50          C53   1.278       .  A
Ni51        Ni52   2.393       .  S
Ni52       O1488   1.920       .  S
Ni52       O1489   1.915       .  S
C53         C266   1.433       .  S
C54        O1489   1.278       .  A
C54         C273   1.434       .  S
C55        O1488   1.280       .  A
C55         C280   1.433       .  S
C56         C267   1.433       .  S
O57        Ni353   1.921       .  S
O57         C355   1.280       .  A
O58         Ni65   1.921   1_554  S
O58          C68   1.280       .  A
O59         Ni65   1.913       .  S
O59          C69   1.278   1_556  A
O60         Ni65   1.913       .  S
O60          C70   1.278   1_556  A
O61         Ni66   1.923       .  S
O61          C70   1.281       .  A
O62         Ni66   1.924       .  S
O62          C69   1.280       .  A
O63         Ni66   1.915       .  S
O63          C68   1.278       .  A
O64         Ni66   1.914       .  S
O64          C67   1.278       .  A
Ni65       O1497   1.921       .  S
Ni65        Ni66   2.391   1_556  S
C67        O1497   1.280   1_554  A
C67         C259   1.435   1_554  S
C68         C263   1.435       .  S
C69         C282   1.436       .  S
C70         C261   1.435       .  S
O71         Ni79   1.922       .  S
O71          C81   1.280       .  A
O72         Ni79   1.922       .  S
O72          C82   1.280       .  A
O73         Ni79   1.913       .  S
O73          C83   1.278       .  A
O74         Ni79   1.913       .  S
O74          C84   1.278       .  A
O75         Ni80   1.919       .  S
O75          C84   1.280       .  A
O76         Ni80   1.920       .  S
O76          C83   1.280       .  A
O77         Ni80   1.914       .  S
O77          C82   1.278       .  A
O78         Ni80   1.912       .  S
O78          C81   1.278       .  A
Ni79        Ni80   2.392       .  S
C81         C255   1.434       .  S
C82         C264   1.435       .  S
C83         C269   1.433       .  S
C84         C258   1.433       .  S
O85         Ni93   1.920       .  S
O85          C95   1.279       .  A
O86         Ni93   1.920       .  S
O86        C1536   1.280   1_554  A
O87         Ni93   1.913       .  S
O87          C97   1.278       .  A
O88         Ni93   1.914       .  S
O88          C98   1.278       .  A
O89         Ni94   1.922       .  S
O89         C386   1.281       .  A
O90         Ni94   1.924       .  S
O90         C385   1.280       .  A
O91         Ni94   1.914       .  S
O91          C96   1.278       .  A
O92         Ni94   1.912       .  S
O92         C383   1.278       .  A
Ni93      Ni1534   2.392   1_554  S
Ni94       Ni381   2.392       .  S
C95        O1532   1.278       .  A
C95         C251   1.432       .  S
C96         O374   1.280       .  A
C96         C253   1.433       .  S
C97        O1530   1.280   1_554  A
C97         C275   1.436       .  S
C98        O1529   1.281   1_554  A
C98         C262   1.435       .  S
O99        Ni107   1.920       .  S
O99         C109   1.279       .  A
O100       Ni107   1.919       .  S
O100        C110   1.280       .  A
O101       Ni107   1.913       .  S
O101        C111   1.278       .  A
O102       Ni107   1.913       .  S
O102        C112   1.278       .  A
O103       Ni108   1.919       .  S
O103        C112   1.280       .  A
O104       Ni108   1.920       .  S
O104        C111   1.280       .  A
O105      Ni1548   1.914       .  S
O105       C1550   1.278       .  A
O106       Ni108   1.912       .  S
O106        C109   1.278       .  A
Ni107      Ni108   2.393       .  S
Ni108       O393   1.914       .  S
C109        C249   1.433       .  S
C110        O393   1.278       .  A
C110        C254   1.433       .  S
C111        C265   1.433       .  S
C112        C257   1.433       .  S
O113       Ni121   1.923       .  S
O113       C1563   1.280       .  A
O114       Ni409   1.923       .  S
O114        C124   1.280       .  A
O115       Ni409   1.912       .  S
O115        C125   1.278       .  A
O116       Ni121   1.912       .  S
O116       C1566   1.278   1_554  A
O117       Ni122   1.922       .  S
O117        C126   1.280       .  A
O118       Ni122   1.922       .  S
O118        C125   1.280       .  A
O119       Ni122   1.916       .  S
O119        C124   1.278       .  A
O120       Ni122   1.915       .  S
O120        C123   1.278       .  A
Ni121      O1554   1.923   1_554  S
Ni121      O1555   1.912       .  S
Ni121     Ni1562   2.392   1_554  S
Ni122      Ni409   2.392       .  S
C123        O401   1.280       .  A
C123        C243   1.436       .  S
C124        C248   1.438       .  S
C125        C245   1.434       .  S
C126        O404   1.278       .  A
C126        C260   1.434       .  S
O127       Ni135   1.923       .  S
O127        C137   1.280       .  A
O128       Ni135   1.923       .  S
O128        C138   1.280       .  A
O129       Ni135   1.912       .  S
O129        C139   1.278       .  A
O130       Ni135   1.911       .  S
O130        C140   1.278       .  A
O131       Ni136   1.920       .  S
O131        C140   1.280       .  A
O132       Ni136   1.919       .  S
O132        C139   1.280       .  A
O133       Ni136   1.916       .  S
O133        C138   1.278       .  A
O134       Ni136   1.914       .  S
O134        C137   1.278       .  A
Ni135      Ni136   2.392       .  S
C137        C239   1.436       .  S
C138        C247   1.438       .  S
C139        C241   1.432       .  S
C140        C252   1.432       .  S
O141       Ni149   1.920       .  S
O141        C151   1.279       .  A
O142       Ni149   1.919       .  S
O142        C440   1.280       .  A
O143       Ni149   1.914       .  S
O143        C153   1.278       .  A
O144       Ni149   1.913       .  S
O144        C154   1.279       .  A
O145       Ni150   1.921       .  S
O145       C1594   1.280   1_554  A
O146       Ni150   1.920       .  S
O146       C1593   1.280   1_554  A
O147       Ni150   1.914       .  S
O147        C152   1.278       .  A
O148       Ni150   1.912   1_556  S
O148       C1591   1.278       .  A
Ni149      Ni438   2.393       .  S
Ni150     Ni1589   2.393   1_554  S
C151        O436   1.278       .  A
C151        C235   1.432       .  S
C152       O1582   1.280   1_554  A
C152        C237   1.433       .  S
C153        O434   1.280       .  A
C153        C246   1.434       .  S
C154        O433   1.280       .  A
C154        C256   1.434   1_655  S
O155       Ni163   1.920       .  S
O155        C165   1.279       .  A
O156       Ni163   1.919       .  S
O156        C166   1.280       .  A
O157       Ni163   1.912       .  S
O157        C167   1.278       .  A
O158       Ni163   1.912       .  S
O158        C168   1.278       .  A
O159       Ni164   1.920       .  S
O159        C168   1.280       .  A
O160       Ni164   1.920       .  S
O160        C167   1.280       .  A
O161       Ni452   1.914       .  S
O161        C454   1.278       .  A
O162       Ni164   1.912       .  S
O162        C165   1.278       .  A
Ni163      Ni164   2.393       .  S
Ni164      O1601   1.914       .  S
C165        C233   1.433       .  S
C166       O1601   1.278       .  A
C166        C238   1.433       .  S
C167        C242   1.432       .  S
C168        C250   1.433   1_655  S
O169       Ni177   1.922       .  S
O169        C467   1.280       .  A
O170      Ni1617   1.921   1_554  S
O170        C180   1.280       .  A
O171       Ni177   1.914       .  S
O171        C469   1.279       .  A
O172       Ni177   1.914       .  S
O172        C470   1.278       .  A
O173       Ni178   1.922       .  S
O173        C182   1.280       .  A
O174       Ni178   1.923       .  S
O174        C181   1.280       .  A
O175       Ni178   1.914       .  S
O175        C180   1.278       .  A
O176       Ni178   1.912       .  S
O176        C179   1.278       .  A
Ni177       O458   1.921       .  S
Ni177      Ni466   2.392       .  S
Ni178     Ni1617   2.392   1_554  S
C179       O1609   1.280   1_554  A
C179        C283   1.434   1_554  S
C180        C231   1.435       .  S
C181       O1611   1.279   1_554  A
C181        C244   1.436       .  S
C182       O1612   1.278   1_554  A
C182        C229   1.435       .  S
O183       Ni191   1.921       .  S
O183        C193   1.279       .  A
O184       Ni191   1.920       .  S
O184        C194   1.280       .  A
O185       Ni191   1.911       .  S
O185        C195   1.278       .  A
O186       Ni191   1.912       .  S
O186        C196   1.278       .  A
O187       Ni192   1.919       .  S
O187        C196   1.280       .  A
O188       Ni192   1.920       .  S
O188        C195   1.280       .  A
O189       Ni192   1.915       .  S
O189        C194   1.278       .  A
O190       Ni192   1.913       .  S
O190        C193   1.278       .  A
Ni191      Ni192   2.392       .  S
C193        C271   1.434       .  S
C194        C232   1.435       .  S
C195        C236   1.432       .  S
C196        C228   1.432       .  S
O197       Ni205   1.921       .  S
O197        C207   1.279       .  A
O198       Ni205   1.920       .  S
O198       C1648   1.280       .  A
O199       Ni205   1.914       .  S
O199        C209   1.279       .  A
O200       Ni205   1.914       .  S
O200       C1650   1.278       .  A
O201       Ni206   1.922       .  S
O201        C210   1.280       .  A
O202       Ni206   1.923       .  S
O202        C497   1.280       .  A
O203       Ni206   1.914       .  S
O203        C208   1.278       .  A
O204       Ni206   1.912       .  S
O204        C495   1.278       .  A
Ni205     Ni1646   2.392   1_554  S
Ni206      Ni493   2.392       .  S
C207       O1644   1.278       .  A
C207        C277   1.433       .  S
C208        O486   1.280       .  A
C208        C226   1.434       .  S
C209       O1642   1.280   1_554  A
C209        C240   1.436   1_565  S
C210        O488   1.278       .  A
C210        C518   1.435       .  S
O211       Ni219   1.920       .  S
O211        C221   1.279       .  A
O212       Ni219   1.920       .  S
O212        C222   1.280       .  A
O213       Ni219   1.911       .  S
O213        C223   1.278       .  A
O214       Ni219   1.912       .  S
O214        C224   1.278       .  A
O215       Ni220   1.920       .  S
O215        C224   1.280       .  A
O216       Ni220   1.920       .  S
O216        C223   1.280       .  A
O217      Ni1660   1.915       .  S
O217       C1662   1.278       .  A
O218       Ni220   1.913       .  S
O218        C221   1.278       .  A
Ni219      Ni220   2.392       .  S
Ni220       O505   1.915       .  S
C221        C268   1.433       .  S
C222        O505   1.278       .  A
C222        C225   1.434       .  S
C223        C234   1.433   1_565  S
C224        C227   1.432       .  S
C225        C226   1.205       .  T
C227        C228   1.204       .  T
C229        C230   1.206       .  T
C230       C1650   1.435       .  S
C231        C232   1.206       .  T
C233        C234   1.204       .  T
C235        C236   1.204       .  T
C237        C238   1.205       .  T
C239        C240   1.206       .  T
C241        C242   1.204       .  T
C243        C532   1.207       .  T
C244       C1683   1.206       .  T
C245        C246   1.205       .  T
C247        C248   1.207       .  T
C249        C250   1.204       .  T
C251        C252   1.204       .  T
C253        C254   1.205       .  T
C255        C256   1.205       .  T
C257        C258   1.205       .  T
C259       C1700   1.206       .  T
C260        C547   1.205       .  T
C261        C262   1.206       .  T
C263        C264   1.206       .  T
C265        C266   1.205   1_545  T
C267        C268   1.205   1_455  T
C269        C270   1.205       .  T
C271        C272   1.205   1_655  T
C272        C330   1.434       .  S
C273        C274   1.205       .  T
C275        C276   1.206   1_545  T
C277        C278   1.205       .  T
C279        C280   1.205       .  T
C281       C1451   1.436       .  S
C281        C282   1.206       .  T
C283       C1724   1.205       .  T
C284        C571   1.205       .  T
C285       C1726   1.205       .  T
C286        C573   1.205       .  T
C287        C288   1.207       .  T
O289       Ni297   1.923       .  S
O290       Ni297   1.923       .  S
O291       Ni297   1.913       .  S
O292       Ni297   1.913       .  S
O293       Ni298   1.921       .  S
O293        C302   1.280       .  A
O294       Ni298   1.920       .  S
O294        C301   1.280       .  A
O295       Ni298   1.916       .  S
O295        C300   1.278       .  A
O296       Ni298   1.914       .  S
O296        C299   1.278       .  A
Ni298      Ni585   2.392       .  S
C299        O577   1.280       .  A
C299        C857   1.436       .  S
C300        O578   1.280       .  A
C300        C575   1.437       .  S
C301        O579   1.278       .  A
C301        C574   1.433       .  S
C302        O580   1.278       .  A
C302        C572   1.434       .  S
O303       Ni311   1.924       .  S
O303        C313   1.280       .  A
O304       Ni311   1.923       .  S
O304        C314   1.280       .  A
O305       Ni311   1.912       .  S
O305        C315   1.278       .  A
O306       Ni311   1.912       .  S
O306        C316   1.278       .  A
O307       Ni312   1.920       .  S
O307        C316   1.280       .  A
O308       Ni312   1.920       .  S
O308        C315   1.280       .  A
O309       Ni312   1.916       .  S
O309        C314   1.278       .  A
O310       Ni312   1.913       .  S
O310        C313   1.278       .  A
Ni311      Ni312   2.392       .  S
C313        C564   1.436       .  S
C314        C576   1.437       .  S
C315        C567   1.433       .  S
C316        C566   1.433       .  S
O317       Ni325   1.920       .  S
O317        C327   1.279       .  A
O318       Ni325   1.920       .  S
O318        C616   1.280       .  A
O319       Ni325   1.912       .  S
O319        C617   1.278       .  A
O320       Ni325   1.912       .  S
O320        C618   1.278       .  A
O321       Ni326   1.922       .  S
O321        C330   1.280       .  A
O322       Ni326   1.921       .  S
O322        C329   1.280       .  A
O323       Ni326   1.914       .  S
O323        C328   1.278       .  A
O324       Ni326   1.913       .  S
Ni325      Ni614   2.393       .  S
C327        O612   1.278       .  A
C327        C558   1.433       .  S
C328        C562   1.434       .  S
C329        C573   1.433       .  S
O331       Ni339   1.920       .  S
O331        C341   1.279       .  A
O332       Ni339   1.919       .  S
O332        C342   1.280       .  A
O333       Ni339   1.912       .  S
O333        C343   1.278       .  A
O334       Ni339   1.912       .  S
O334        C344   1.278       .  A
O335       Ni340   1.921       .  S
O335        C344   1.280       .  A
O336       Ni628   1.920       .  S
O336        C631   1.280       .  A
O337       Ni628   1.915       .  S
O337        C630   1.278       .  A
O338       Ni340   1.913       .  S
O338        C341   1.278       .  A
Ni339      Ni340   2.393       .  S
C341        C554   1.433       .  S
C342        C561   1.434       .  S
C343        C568   1.433       .  S
C344        C555   1.433       .  S
O345       Ni641   1.921       .  S
O345        C643   1.280       .  A
O346       Ni353   1.921       .  S
O346        C356   1.280       .  A
O347       Ni353   1.913       .  S
O347        C357   1.278       .  A
O348       Ni353   1.913       .  S
O348        C358   1.278       .  A
O349       Ni354   1.923       .  S
O349        C358   1.281       .  A
O350       Ni354   1.924       .  S
O350        C357   1.280       .  A
O351       Ni354   1.915       .  S
O351        C356   1.278       .  A
O352       Ni354   1.914       .  S
O352        C355   1.278       .  A
Ni353      Ni354   2.391       .  S
C355        C547   1.434       .  S
C356        C551   1.435       .  S
C357        C570   1.436       .  S
C358        C549   1.435       .  S
O359       Ni367   1.922       .  S
O359        C369   1.280       .  A
O360       Ni367   1.922       .  S
O360        C370   1.280       .  A
O361       Ni367   1.913       .  S
O361        C371   1.278       .  A
O362       Ni367   1.913       .  S
O362        C372   1.278       .  A
O363       Ni368   1.919       .  S
O363        C372   1.280       .  A
O364       Ni368   1.920       .  S
O364        C371   1.280       .  A
O365       Ni368   1.914       .  S
O365        C370   1.278       .  A
O366       Ni368   1.912       .  S
O366        C369   1.278       .  A
Ni367      Ni368   2.393       .  S
C369        C543   1.434       .  S
C370        C552   1.435       .  S
C371        C557   1.433       .  S
C372        C546   1.433       .  S
O373       Ni381   1.920       .  S
O373        C383   1.279       .  A
O374       Ni381   1.920       .  S
O375       Ni381   1.913       .  S
O375        C385   1.278       .  A
O376       Ni381   1.914       .  S
O376        C386   1.278       .  A
O377       Ni382   1.922       .  S
O377        C674   1.281       .  A
O378       Ni382   1.924       .  S
O378        C673   1.280       .  A
O379       Ni382   1.914       .  S
O379        C384   1.278       .  A
O380       Ni382   1.912       .  S
O380        C671   1.278       .  A
Ni382      Ni669   2.392       .  S
C383        C539   1.432       .  S
C384        O662   1.280       .  A
C384        C541   1.433       .  S
C385        C563   1.435       .  S
C386        C550   1.435       .  S
O387       Ni395   1.920       .  S
O387        C397   1.279       .  A
O388       Ni395   1.919       .  S
O388        C398   1.280       .  A
O389       Ni395   1.913       .  S
O389        C399   1.278       .  A
O390       Ni395   1.913       .  S
O390        C400   1.278       .  A
O391       Ni396   1.919       .  S
O391        C400   1.280       .  A
O392       Ni396   1.920       .  S
O392        C399   1.280       .  A
O394       Ni396   1.912       .  S
O394        C397   1.278       .  A
Ni395      Ni396   2.393       .  S
Ni396       O681   1.914       .  S
C397        C537   1.433       .  S
C398        O681   1.278       .  A
C398        C542   1.433       .  S
C399        C553   1.433       .  S
C400        C545   1.433       .  S
O401       Ni409   1.923       .  S
O402       Ni697   1.923       .  S
O402        C412   1.280       .  A
O403       Ni697   1.912       .  S
O403        C413   1.278       .  A
O404       Ni409   1.912       .  S
O405       Ni410   1.922       .  S
O405        C414   1.280       .  A
O406       Ni410   1.922       .  S
O406        C413   1.280       .  A
O407       Ni410   1.916       .  S
O407        C412   1.278       .  A
O408       Ni410   1.915       .  S
O408        C411   1.278       .  A
Ni410      Ni697   2.392       .  S
C411        O689   1.280       .  A
C411        C531   1.436       .  S
C412        C536   1.438       .  S
C413        C533   1.434       .  S
C414        O692   1.278       .  A
C414        C548   1.434       .  S
O415       Ni423   1.923       .  S
O415        C425   1.280       .  A
O416       Ni423   1.923       .  S
O416        C426   1.280       .  A
O417       Ni423   1.912       .  S
O417        C427   1.278       .  A
O418       Ni423   1.911       .  S
O418        C428   1.278       .  A
O419       Ni424   1.920       .  S
O419        C428   1.280       .  A
O420       Ni424   1.919       .  S
O420        C427   1.280       .  A
O421       Ni424   1.916       .  S
O421        C426   1.278       .  A
O422       Ni424   1.914       .  S
O422        C425   1.278       .  A
Ni423      Ni424   2.392       .  S
C425        C527   1.436       .  S
C426        C535   1.438       .  S
C427        C529   1.432       .  S
C428        C540   1.432       .  S
O429       Ni437   1.920       .  S
O429        C439   1.279       .  A
O430       Ni437   1.919       .  S
O430        C728   1.280       .  A
O431       Ni437   1.914       .  S
O431        C441   1.278       .  A
O432       Ni437   1.913       .  S
O432        C442   1.279       .  A
O433       Ni438   1.921       .  S
O434       Ni438   1.920       .  S
O435       Ni438   1.914       .  S
O435        C440   1.278       .  A
O436       Ni438   1.912       .  S
Ni437      Ni726   2.393       .  S
C439        O724   1.278       .  A
C439        C523   1.432       .  S
C440        C525   1.433       .  S
C441        O722   1.280       .  A
C441        C534   1.434       .  S
C442        O721   1.280       .  A
C442        C544   1.434   1_655  S
O443       Ni451   1.920       .  S
O443        C453   1.279       .  A
O444       Ni451   1.919       .  S
O444        C454   1.279       .  A
O445       Ni451   1.912       .  S
O445        C455   1.278       .  A
O446       Ni451   1.911       .  S
O446        C456   1.278       .  A
O447       Ni452   1.920       .  S
O447        C456   1.280       .  A
O448       Ni452   1.920       .  S
O448        C455   1.280       .  A
O449       Ni740   1.914       .  S
O449        C742   1.278       .  A
O450       Ni452   1.912       .  S
O450        C453   1.278       .  A
Ni451      Ni452   2.393       .  S
C453        C521   1.433       .  S
C454        C526   1.433       .  S
C455        C530   1.432       .  S
C456        C538   1.433   1_655  S
O457       Ni465   1.922       .  S
O457        C755   1.280       .  A
O458        C468   1.280       .  A
O459       Ni465   1.914       .  S
O459        C757   1.279       .  A
O460       Ni465   1.914       .  S
O460        C758   1.278       .  A
O461       Ni466   1.922       .  S
O461        C470   1.280       .  A
O462       Ni466   1.923       .  S
O462        C469   1.280       .  A
O463       Ni466   1.914       .  S
O463        C468   1.278       .  A
O464       Ni466   1.912       .  S
O464        C467   1.278       .  A
Ni465       O746   1.921       .  S
Ni465      Ni754   2.392       .  S
C467        C571   1.434       .  S
C468        C519   1.435       .  S
C469        C532   1.436       .  S
C470        C517   1.435       .  S
O471       Ni479   1.921       .  S
O471        C481   1.279       .  A
O472       Ni479   1.920       .  S
O472        C482   1.280       .  A
O473       Ni479   1.911       .  S
O473        C483   1.278       .  A
O474       Ni479   1.912       .  S
O474        C484   1.278       .  A
O475       Ni480   1.919       .  S
O475        C484   1.280       .  A
O476       Ni480   1.920       .  S
O476        C483   1.280       .  A
O477       Ni480   1.915       .  S
O477        C482   1.278       .  A
O478       Ni480   1.913       .  S
O478        C481   1.278       .  A
Ni479      Ni480   2.392       .  S
C481        C559   1.434       .  S
C482        C520   1.435       .  S
C483        C524   1.432       .  S
C484        C516   1.432       .  S
O485       Ni493   1.920       .  S
O485        C495   1.279       .  A
O486       Ni493   1.920       .  S
O487       Ni493   1.914       .  S
O487        C497   1.279       .  A
O488       Ni493   1.914       .  S
O489       Ni494   1.922       .  S
O489        C498   1.280       .  A
O490       Ni494   1.923       .  S
O490        C785   1.280       .  A
O491       Ni494   1.914       .  S
O491        C496   1.278       .  A
O492       Ni494   1.912       .  S
O492        C783   1.278       .  A
Ni494      Ni781   2.392       .  S
C495        C565   1.433       .  S
C496        O774   1.280       .  A
C496        C514   1.434       .  S
C497        C528   1.436   1_565  S
C498        O776   1.278       .  A
C498        C806   1.435       .  S
O499       Ni507   1.920       .  S
O499        C509   1.279       .  A
O500       Ni507   1.920       .  S
O500        C510   1.280       .  A
O501       Ni507   1.911       .  S
O501        C511   1.278       .  A
O502       Ni507   1.912       .  S
O502        C512   1.278       .  A
O503       Ni508   1.920       .  S
O503        C512   1.280       .  A
O504       Ni508   1.920       .  S
O504        C511   1.280       .  A
O506       Ni508   1.913       .  S
O506        C509   1.278       .  A
Ni507      Ni508   2.392       .  S
Ni508       O793   1.915       .  S
C509        C556   1.433       .  S
C510        O793   1.278       .  A
C510        C513   1.434       .  S
C511        C522   1.432   1_565  S
C512        C515   1.432       .  S
C513        C514   1.205       .  T
C515        C516   1.204       .  T
C517        C518   1.206       .  T
C519        C520   1.206       .  T
C521        C522   1.204       .  T
C523        C524   1.204       .  T
C525        C526   1.205       .  T
C527        C528   1.206       .  T
C529        C530   1.204       .  T
C531        C820   1.207       .  T
C533        C534   1.205       .  T
C535        C536   1.207       .  T
C537        C538   1.204       .  T
C539        C540   1.204       .  T
C541        C542   1.205       .  T
C543        C544   1.205       .  T
C545        C546   1.204       .  T
C548        C835   1.205       .  T
C549        C550   1.206       .  T
C551        C552   1.206       .  T
C553        C554   1.205   1_545  T
C555        C556   1.205   1_455  T
C557        C558   1.205       .  T
C559        C560   1.205   1_655  T
C560        C618   1.434       .  S
C561        C562   1.205       .  T
C563        C564   1.206   1_545  T
C565        C566   1.205       .  T
C567        C568   1.204       .  T
C569        C570   1.206       .  T
C572        C859   1.205       .  T
C574        C861   1.205       .  T
C575        C576   1.207       .  T
O577       Ni585   1.923       .  S
O578       Ni585   1.923       .  S
O579       Ni585   1.913       .  S
O580       Ni585   1.913       .  S
O581       Ni586   1.921       .  S
O581        C590   1.280       .  A
O582       Ni586   1.920       .  S
O582        C589   1.280       .  A
O583       Ni586   1.916       .  S
O583        C588   1.278       .  A
O584       Ni586   1.914       .  S
O584        C587   1.278       .  A
Ni586      Ni873   2.392       .  S
C587        O865   1.280       .  A
C587       C1145   1.436       .  S
C588        O866   1.280       .  A
C588        C863   1.437       .  S
C589        O867   1.278       .  A
C589        C862   1.433       .  S
C590        O868   1.278       .  A
C590        C860   1.434       .  S
O591       Ni599   1.924       .  S
O591        C601   1.280       .  A
O592       Ni599   1.923       .  S
O592        C602   1.280       .  A
O593       Ni599   1.912       .  S
O593        C603   1.278       .  A
O594       Ni599   1.912       .  S
O594        C604   1.278       .  A
O595       Ni600   1.921       .  S
O595        C604   1.280       .  A
O596       Ni600   1.920       .  S
O596        C603   1.280       .  A
O597       Ni600   1.916       .  S
O597        C602   1.278       .  A
O598       Ni600   1.913       .  S
O598        C601   1.278       .  A
Ni599      Ni600   2.392       .  S
C601        C852   1.436       .  S
C602        C864   1.437       .  S
C603        C855   1.433       .  S
C604        C854   1.433       .  S
O605       Ni613   1.920       .  S
O605        C615   1.279       .  A
O606       Ni613   1.920       .  S
O606        C904   1.280       .  A
O607       Ni613   1.912       .  S
O607        C905   1.278       .  A
O608       Ni613   1.912       .  S
O608        C906   1.278       .  A
O609       Ni614   1.922       .  S
O609        C618   1.280       .  A
O610       Ni614   1.921       .  S
O610        C617   1.280       .  A
O611       Ni614   1.915       .  S
O611        C616   1.278       .  A
O612       Ni614   1.913       .  S
Ni613      Ni902   2.393       .  S
C615        O900   1.278       .  A
C615        C846   1.433       .  S
C616        C850   1.434       .  S
C617        C861   1.433       .  S
O619       Ni627   1.920       .  S
O619        C629   1.279       .  A
O620       Ni627   1.919       .  S
O620        C630   1.280       .  A
O621       Ni627   1.912       .  S
O621        C631   1.278       .  A
O622       Ni627   1.912       .  S
O622        C632   1.278       .  A
O623       Ni628   1.921       .  S
O623        C632   1.280       .  A
O624       Ni916   1.920       .  S
O624        C919   1.280       .  A
O625       Ni916   1.915       .  S
O625        C918   1.278       .  A
O626       Ni628   1.913       .  S
O626        C629   1.278       .  A
Ni627      Ni628   2.393       .  S
C629        C842   1.433       .  S
C630        C849   1.434       .  S
C631        C856   1.433       .  S
C632        C843   1.433       .  S
O633       Ni929   1.921       .  S
O633        C931   1.280       .  A
O634       Ni641   1.921       .  S
O634        C644   1.280       .  A
O635       Ni641   1.913       .  S
O635        C645   1.278       .  A
O636       Ni641   1.913       .  S
O636        C646   1.278       .  A
O637       Ni642   1.923       .  S
O637        C646   1.281       .  A
O638       Ni642   1.924       .  S
O638        C645   1.280       .  A
O639       Ni642   1.915       .  S
O639        C644   1.278       .  A
O640       Ni642   1.914       .  S
O640        C643   1.278       .  A
Ni641      Ni642   2.391       .  S
C643        C835   1.434       .  S
C644        C839   1.435       .  S
C645        C858   1.436       .  S
C646        C837   1.435       .  S
O647       Ni655   1.922       .  S
O647        C657   1.280       .  A
O648       Ni655   1.922       .  S
O648        C658   1.280       .  A
O649       Ni655   1.913       .  S
O649        C659   1.278       .  A
O650       Ni655   1.913       .  S
O650        C660   1.278       .  A
O651       Ni656   1.920       .  S
O651        C660   1.280       .  A
O652       Ni656   1.920       .  S
O652        C659   1.280       .  A
O653       Ni656   1.914       .  S
O653        C658   1.278       .  A
O654       Ni656   1.912       .  S
O654        C657   1.278       .  A
Ni655      Ni656   2.392       .  S
C657        C831   1.434       .  S
C658        C840   1.435       .  S
C659        C845   1.433       .  S
C660        C834   1.433       .  S
O661       Ni669   1.920       .  S
O661        C671   1.279       .  A
O662       Ni669   1.920       .  S
O663       Ni669   1.913       .  S
O663        C673   1.278       .  A
O664       Ni669   1.914       .  S
O664        C674   1.278       .  A
O665       Ni670   1.922       .  S
O665        C962   1.281       .  A
O666       Ni670   1.923       .  S
O666        C961   1.280       .  A
O667       Ni670   1.914       .  S
O667        C672   1.278       .  A
O668       Ni670   1.912       .  S
O668        C959   1.278       .  A
Ni670      Ni957   2.392       .  S
C671        C827   1.433       .  S
C672        O950   1.280       .  A
C672        C829   1.433       .  S
C673        C851   1.436       .  S
C674        C838   1.435       .  S
O675       Ni683   1.920       .  S
O675        C685   1.279       .  A
O676       Ni683   1.919       .  S
O676        C686   1.280       .  A
O677       Ni683   1.913       .  S
O677        C687   1.278       .  A
O678       Ni683   1.913       .  S
O678        C688   1.278       .  A
O679       Ni684   1.920       .  S
O679        C688   1.280       .  A
O680       Ni684   1.920       .  S
O680        C687   1.280       .  A
O682       Ni684   1.912       .  S
O682        C685   1.278       .  A
Ni683      Ni684   2.393       .  S
Ni684       O969   1.914       .  S
C685        C825   1.433       .  S
C686        O969   1.278       .  A
C686        C830   1.433       .  S
C687        C841   1.433       .  S
C688        C833   1.433       .  S
O689       Ni697   1.923       .  S
O690       Ni985   1.923       .  S
O690        C700   1.280       .  A
O691       Ni985   1.912       .  S
O691        C701   1.278       .  A
O692       Ni697   1.912       .  S
O693       Ni698   1.922       .  S
O693        C702   1.280       .  A
O694       Ni698   1.922       .  S
O694        C701   1.280       .  A
O695       Ni698   1.916       .  S
O695        C700   1.278       .  A
O696       Ni698   1.915       .  S
O696        C699   1.278       .  A
Ni698      Ni985   2.392       .  S
C699        O977   1.280       .  A
C699        C819   1.436       .  S
C700        C824   1.437       .  S
C701        C821   1.434       .  S
C702        O980   1.278       .  A
C702        C836   1.434       .  S
O703       Ni711   1.923       .  S
O703        C713   1.280       .  A
O704       Ni711   1.923       .  S
O704        C714   1.280       .  A
O705       Ni711   1.912       .  S
O705        C715   1.278       .  A
O706       Ni711   1.911       .  S
O706        C716   1.278       .  A
O707       Ni712   1.920       .  S
O707        C716   1.280       .  A
O708       Ni712   1.919       .  S
O708        C715   1.280       .  A
O709       Ni712   1.916       .  S
O709        C714   1.278       .  A
O710       Ni712   1.914       .  S
O710        C713   1.278       .  A
Ni711      Ni712   2.392       .  S
C713        C815   1.436       .  S
C714        C823   1.437       .  S
C715        C817   1.432       .  S
C716        C828   1.433       .  S
O717       Ni725   1.920       .  S
O717        C727   1.279       .  A
O718       Ni725   1.919       .  S
O718       C1016   1.280       .  A
O719       Ni725   1.914       .  S
O719        C729   1.278       .  A
O720       Ni725   1.913       .  S
O720        C730   1.279       .  A
O721       Ni726   1.921       .  S
O722       Ni726   1.920       .  S
O723       Ni726   1.914       .  S
O723        C728   1.278       .  A
O724       Ni726   1.912       .  S
Ni725     Ni1014   2.393       .  S
C727       O1012   1.278       .  A
C727        C811   1.432       .  S
C728        C813   1.433       .  S
C729       O1010   1.280       .  A
C729        C822   1.434       .  S
C730       O1009   1.280       .  A
C730        C832   1.434   1_655  S
O731       Ni739   1.920       .  S
O731        C741   1.279       .  A
O732       Ni739   1.919       .  S
O732        C742   1.280       .  A
O733       Ni739   1.912       .  S
O733        C743   1.278       .  A
O734       Ni739   1.912       .  S
O734        C744   1.278       .  A
O735       Ni740   1.920       .  S
O735        C744   1.280       .  A
O736       Ni740   1.920       .  S
O736        C743   1.280       .  A
O737      Ni1028   1.914       .  S
O737       C1030   1.278       .  A
O738       Ni740   1.912       .  S
O738        C741   1.278       .  A
Ni739      Ni740   2.393       .  S
C741        C809   1.433       .  S
C742        C814   1.433       .  S
C743        C818   1.432       .  S
C744        C826   1.433   1_655  S
O745       Ni753   1.922       .  S
O745       C1043   1.280       .  A
O746        C756   1.280       .  A
O747       Ni753   1.914       .  S
O747       C1045   1.279       .  A
O748       Ni753   1.914       .  S
O748       C1046   1.278       .  A
O749       Ni754   1.922       .  S
O749        C758   1.280       .  A
O750       Ni754   1.923       .  S
O750        C757   1.280       .  A
O751       Ni754   1.914       .  S
O751        C756   1.278       .  A
O752       Ni754   1.912       .  S
O752        C755   1.278       .  A
Ni753      O1034   1.921       .  S
Ni753     Ni1042   2.392       .  S
C755        C859   1.434       .  S
C756        C807   1.435       .  S
C757        C820   1.436       .  S
C758        C805   1.435       .  S
O759       Ni767   1.921       .  S
O759        C769   1.279       .  A
O760       Ni767   1.920       .  S
O760        C770   1.280       .  A
O761       Ni767   1.911       .  S
O761        C771   1.278       .  A
O762       Ni767   1.912       .  S
O762        C772   1.278       .  A
O763       Ni768   1.919       .  S
O763        C772   1.280       .  A
O764       Ni768   1.920       .  S
O764        C771   1.280       .  A
O765       Ni768   1.915       .  S
O765        C770   1.278       .  A
O766       Ni768   1.913       .  S
O766        C769   1.278       .  A
Ni767      Ni768   2.392       .  S
C769        C847   1.434       .  S
C770        C808   1.435       .  S
C771        C812   1.432       .  S
C772        C804   1.432       .  S
O773       Ni781   1.921       .  S
O773        C783   1.279       .  A
O774       Ni781   1.920       .  S
O775       Ni781   1.914       .  S
O775        C785   1.279       .  A
O776       Ni781   1.914       .  S
O777       Ni782   1.922       .  S
O777        C786   1.280       .  A
O778       Ni782   1.923       .  S
O778       C1073   1.280       .  A
O779       Ni782   1.914       .  S
O779        C784   1.278       .  A
O780       Ni782   1.913       .  S
O780       C1071   1.278       .  A
Ni782     Ni1069   2.392       .  S
C783        C853   1.433       .  S
C784       O1062   1.280       .  A
C784        C802   1.434       .  S
C785        C816   1.436   1_565  S
C786       O1064   1.278       .  A
C786       C1094   1.435       .  S
O787       Ni795   1.920       .  S
O787        C797   1.279       .  A
O788       Ni795   1.920       .  S
O788        C798   1.280       .  A
O789       Ni795   1.911       .  S
O789        C799   1.278       .  A
O790       Ni795   1.912       .  S
O790        C800   1.278       .  A
O791       Ni796   1.920       .  S
O791        C800   1.280       .  A
O792       Ni796   1.920       .  S
O792        C799   1.280       .  A
O794       Ni796   1.913       .  S
O794        C797   1.278       .  A
Ni795      Ni796   2.392       .  S
Ni796      O1081   1.915       .  S
C797        C844   1.433       .  S
C798       O1081   1.278       .  A
C798        C801   1.434       .  S
C799        C810   1.433   1_565  S
C800        C803   1.432       .  S
C801        C802   1.205       .  T
C803        C804   1.204       .  T
C805        C806   1.206       .  T
C807        C808   1.206       .  T
C809        C810   1.204       .  T
C811        C812   1.204       .  T
C813        C814   1.205       .  T
C815        C816   1.206       .  T
C817        C818   1.204       .  T
C819       C1108   1.207       .  T
C821        C822   1.205       .  T
C823        C824   1.207       .  T
C825        C826   1.204       .  T
C827        C828   1.204       .  T
C829        C830   1.205       .  T
C831        C832   1.205       .  T
C833        C834   1.205       .  T
C836       C1123   1.205       .  T
C837        C838   1.206       .  T
C839        C840   1.206       .  T
C841        C842   1.205   1_545  T
C843        C844   1.205   1_455  T
C845        C846   1.205       .  T
C847        C848   1.205   1_655  T
C848        C906   1.434       .  S
C849        C850   1.205       .  T
C851        C852   1.206   1_545  T
C853        C854   1.205       .  T
C855        C856   1.205       .  T
C857        C858   1.206       .  T
C860       C1147   1.205       .  T
C862       C1149   1.205       .  T
C863        C864   1.207       .  T
O865       Ni873   1.923       .  S
O866       Ni873   1.923       .  S
O867       Ni873   1.913       .  S
O868       Ni873   1.912       .  S
O869       Ni874   1.921       .  S
O869        C878   1.280       .  A
O870       Ni874   1.920       .  S
O870        C877   1.280       .  A
O871       Ni874   1.916       .  S
O871        C876   1.278       .  A
O872       Ni874   1.914       .  S
O872        C875   1.278       .  A
Ni874     Ni1161   2.392       .  S
C875       O1153   1.280       .  A
C875       C1433   1.436       .  S
C876       O1154   1.280       .  A
C876       C1151   1.437       .  S
C877       O1155   1.278       .  A
C877       C1150   1.433       .  S
C878       O1156   1.278       .  A
C878       C1148   1.434       .  S
O879       Ni887   1.924       .  S
O879        C889   1.280       .  A
O880       Ni887   1.923       .  S
O880        C890   1.280       .  A
O881       Ni887   1.912       .  S
O881        C891   1.278       .  A
O882       Ni887   1.912       .  S
O882        C892   1.278       .  A
O883       Ni888   1.921       .  S
O883        C892   1.280       .  A
O884       Ni888   1.920       .  S
O884        C891   1.280       .  A
O885       Ni888   1.916       .  S
O885        C890   1.278       .  A
O886       Ni888   1.913       .  S
O886        C889   1.278       .  A
Ni887      Ni888   2.392       .  S
C889       C1140   1.435       .  S
C890       C1152   1.437       .  S
C891       C1143   1.433       .  S
C892       C1142   1.433       .  S
O893       Ni901   1.920       .  S
O893        C903   1.279       .  A
O894       Ni901   1.920       .  S
O894       C1192   1.280       .  A
O895       Ni901   1.912       .  S
O895       C1193   1.278       .  A
O896       Ni901   1.912       .  S
O896       C1194   1.278       .  A
O897       Ni902   1.922       .  S
O897        C906   1.280       .  A
O898       Ni902   1.921       .  S
O898        C905   1.280       .  A
O899       Ni902   1.915       .  S
O899        C904   1.278       .  A
O900       Ni902   1.913       .  S
Ni901     Ni1190   2.393       .  S
C903       O1188   1.278       .  A
C903       C1134   1.433       .  S
C904       C1138   1.434       .  S
C905       C1149   1.433       .  S
O907       Ni915   1.920       .  S
O907        C917   1.279       .  A
O908       Ni915   1.920       .  S
O908        C918   1.280       .  A
O909       Ni915   1.912       .  S
O909        C919   1.278       .  A
O910       Ni915   1.912       .  S
O910        C920   1.278       .  A
O911       Ni916   1.921       .  S
O911        C920   1.280       .  A
O912      Ni1204   1.920       .  S
O912       C1207   1.280       .  A
O913      Ni1204   1.915       .  S
O913       C1206   1.278       .  A
O914       Ni916   1.913       .  S
O914        C917   1.278       .  A
Ni915      Ni916   2.393       .  S
C917       C1130   1.433       .  S
C918       C1137   1.434       .  S
C919       C1144   1.433       .  S
C920       C1131   1.433       .  S
O921      Ni1217   1.921       .  S
O921       C1219   1.280       .  A
O922       Ni929   1.921       .  S
O922        C932   1.280       .  A
O923       Ni929   1.913       .  S
O923        C933   1.278       .  A
O924       Ni929   1.913       .  S
O924        C934   1.278       .  A
O925       Ni930   1.923       .  S
O925        C934   1.281       .  A
O926       Ni930   1.924       .  S
O926        C933   1.280       .  A
O927       Ni930   1.915       .  S
O927        C932   1.278       .  A
O928       Ni930   1.914       .  S
O928        C931   1.278       .  A
Ni929      Ni930   2.391       .  S
C931       C1123   1.434       .  S
C932       C1127   1.436       .  S
C933       C1146   1.436       .  S
C934       C1125   1.435       .  S
O935       Ni943   1.923       .  S
O935        C945   1.280       .  A
O936       Ni943   1.922       .  S
O936        C946   1.280       .  A
O937       Ni943   1.913       .  S
O937        C947   1.278       .  A
O938       Ni943   1.913       .  S
O938        C948   1.278       .  A
O939       Ni944   1.919       .  S
O939        C948   1.280       .  A
O940       Ni944   1.920       .  S
O940        C947   1.280       .  A
O941       Ni944   1.914       .  S
O941        C946   1.278       .  A
O942       Ni944   1.912       .  S
O942        C945   1.278       .  A
Ni943      Ni944   2.392       .  S
C945       C1119   1.434       .  S
C946       C1128   1.435       .  S
C947       C1133   1.433       .  S
C948       C1122   1.433       .  S
O949       Ni957   1.920       .  S
O949        C959   1.279       .  A
O950       Ni957   1.920       .  S
O951       Ni957   1.913       .  S
O951        C961   1.278       .  A
O952       Ni957   1.914       .  S
O952        C962   1.278       .  A
O953       Ni958   1.922       .  S
O953       C1250   1.281       .  A
O954       Ni958   1.924       .  S
O954       C1249   1.280       .  A
O955       Ni958   1.914       .  S
O955        C960   1.278       .  A
O956       Ni958   1.912       .  S
O956       C1247   1.278       .  A
Ni958     Ni1245   2.392       .  S
C959       C1115   1.433       .  S
C960       O1238   1.280       .  A
C960       C1117   1.433       .  S
C961       C1139   1.435       .  S
C962       C1126   1.435       .  S
O963       Ni971   1.920       .  S
O963        C973   1.279       .  A
O964       Ni971   1.919       .  S
O964        C974   1.280       .  A
O965       Ni971   1.913       .  S
O965        C975   1.278       .  A
O966       Ni971   1.913       .  S
O966        C976   1.278       .  A
O967       Ni972   1.919       .  S
O967        C976   1.280       .  A
O968       Ni972   1.920       .  S
O968        C975   1.280       .  A
O970       Ni972   1.912       .  S
O970        C973   1.278       .  A
Ni971      Ni972   2.393       .  S
Ni972      O1257   1.914       .  S
C973       C1113   1.433       .  S
C974       O1257   1.278       .  A
C974       C1118   1.433       .  S
C975       C1129   1.433       .  S
C976       C1121   1.433       .  S
O977       Ni985   1.923       .  S
O978      Ni1273   1.923       .  S
O978        C988   1.280       .  A
O979      Ni1273   1.912       .  S
O979        C989   1.278       .  A
O980       Ni985   1.912       .  S
O981       Ni986   1.922       .  S
O981        C990   1.280       .  A
O982       Ni986   1.922       .  S
O982        C989   1.280       .  A
O983       Ni986   1.916       .  S
O983        C988   1.278       .  A
O984       Ni986   1.915       .  S
O984        C987   1.278       .  A
Ni986     Ni1273   2.392       .  S
C987       O1265   1.280       .  A
C987       C1107   1.436       .  S
C988       C1112   1.437       .  S
C989       C1109   1.434       .  S
C990       O1268   1.278       .  A
C990       C1124   1.434       .  S
O991       Ni999   1.923       .  S
O991       C1001   1.280       .  A
O992       Ni999   1.923       .  S
O992       C1002   1.280       .  A
O993       Ni999   1.912       .  S
O993       C1003   1.278       .  A
O994       Ni999   1.911       .  S
O994       C1004   1.278       .  A
O995      Ni1000   1.920       .  S
O995       C1004   1.280       .  A
O996      Ni1000   1.919       .  S
O996       C1003   1.280       .  A
O997      Ni1000   1.916       .  S
O997       C1002   1.278       .  A
O998      Ni1000   1.914       .  S
O998       C1001   1.278       .  A
Ni999     Ni1000   2.392       .  S
C1001      C1103   1.436       .  S
C1002      C1111   1.437       .  S
C1003      C1105   1.432       .  S
C1004      C1116   1.432       .  S
O1005     Ni1013   1.920       .  S
O1005      C1015   1.279       .  A
O1006     Ni1013   1.919       .  S
O1006      C1304   1.280       .  A
O1007     Ni1013   1.914       .  S
O1007      C1017   1.278       .  A
O1008     Ni1013   1.913       .  S
O1008      C1018   1.279       .  A
O1009     Ni1014   1.921       .  S
O1010     Ni1014   1.920       .  S
O1011     Ni1014   1.914       .  S
O1011      C1016   1.278       .  A
O1012     Ni1014   1.912       .  S
Ni1013    Ni1302   2.393       .  S
C1015      O1300   1.278       .  A
C1015      C1099   1.432       .  S
C1016      C1101   1.433       .  S
C1017      O1298   1.280       .  A
C1017      C1110   1.434       .  S
C1018      O1297   1.280       .  A
C1018      C1120   1.434   1_655  S
O1019     Ni1027   1.920       .  S
O1019      C1029   1.279       .  A
O1020     Ni1027   1.919       .  S
O1020      C1030   1.279       .  A
O1021     Ni1027   1.912       .  S
O1021      C1031   1.278       .  A
O1022     Ni1027   1.911       .  S
O1022      C1032   1.278       .  A
O1023     Ni1028   1.920       .  S
O1023      C1032   1.280       .  A
O1024     Ni1028   1.919       .  S
O1024      C1031   1.280       .  A
O1025     Ni1316   1.914       .  S
O1025      C1318   1.278       .  A
O1026     Ni1028   1.912       .  S
O1026      C1029   1.278       .  A
Ni1027    Ni1028   2.393       .  S
C1029      C1097   1.433       .  S
C1030      C1102   1.433       .  S
C1031      C1106   1.432       .  S
C1032      C1114   1.433   1_655  S
O1033     Ni1041   1.922       .  S
O1033      C1331   1.280       .  A
O1034      C1044   1.280       .  A
O1035     Ni1041   1.914       .  S
O1035      C1333   1.279       .  A
O1036     Ni1041   1.914       .  S
O1036      C1334   1.278       .  A
O1037     Ni1042   1.922       .  S
O1037      C1046   1.280       .  A
O1038     Ni1042   1.923       .  S
O1038      C1045   1.280       .  A
O1039     Ni1042   1.914       .  S
O1039      C1044   1.278       .  A
O1040     Ni1042   1.912       .  S
O1040      C1043   1.278       .  A
Ni1041     O1322   1.921       .  S
Ni1041    Ni1330   2.392       .  S
C1043      C1147   1.434       .  S
C1044      C1095   1.435       .  S
C1045      C1108   1.436       .  S
C1046      C1093   1.435       .  S
O1047     Ni1055   1.921       .  S
O1047      C1057   1.279       .  A
O1048     Ni1055   1.920       .  S
O1048      C1058   1.280       .  A
O1049     Ni1055   1.911       .  S
O1049      C1059   1.278       .  A
O1050     Ni1055   1.912       .  S
O1050      C1060   1.278       .  A
O1051     Ni1056   1.919       .  S
O1051      C1060   1.280       .  A
O1052     Ni1056   1.920       .  S
O1052      C1059   1.280       .  A
O1053     Ni1056   1.915       .  S
O1053      C1058   1.278       .  A
O1054     Ni1056   1.913       .  S
O1054      C1057   1.278       .  A
Ni1055    Ni1056   2.392       .  S
C1057      C1135   1.434       .  S
C1058      C1096   1.435       .  S
C1059      C1100   1.432       .  S
C1060      C1092   1.432       .  S
O1061     Ni1069   1.921       .  S
O1061      C1071   1.279       .  A
O1062     Ni1069   1.920       .  S
O1063     Ni1069   1.914       .  S
O1063      C1073   1.279       .  A
O1064     Ni1069   1.914       .  S
O1065     Ni1070   1.922       .  S
O1065      C1074   1.280       .  A
O1066     Ni1070   1.923       .  S
O1066      C1361   1.280       .  A
O1067     Ni1070   1.914       .  S
O1067      C1072   1.278       .  A
O1068     Ni1070   1.912       .  S
O1068      C1359   1.278       .  A
Ni1070    Ni1357   2.392       .  S
C1071      C1141   1.433       .  S
C1072      O1350   1.280       .  A
C1072      C1090   1.434       .  S
C1073      C1104   1.436   1_565  S
C1074      O1352   1.278       .  A
C1074      C1382   1.435       .  S
O1075     Ni1083   1.920       .  S
O1075      C1085   1.279       .  A
O1076     Ni1083   1.920       .  S
O1076      C1086   1.280       .  A
O1077     Ni1083   1.911       .  S
O1077      C1087   1.278       .  A
O1078     Ni1083   1.912       .  S
O1078      C1088   1.278       .  A
O1079     Ni1084   1.920       .  S
O1079      C1088   1.280       .  A
O1080     Ni1084   1.920       .  S
O1080      C1087   1.280       .  A
O1082     Ni1084   1.913       .  S
O1082      C1085   1.278       .  A
Ni1083    Ni1084   2.392       .  S
Ni1084     O1369   1.915       .  S
C1085      C1132   1.433       .  S
C1086      O1369   1.278       .  A
C1086      C1089   1.434       .  S
C1087      C1098   1.432   1_565  S
C1088      C1091   1.432       .  S
C1089      C1090   1.205       .  T
C1091      C1092   1.204       .  T
C1093      C1094   1.206       .  T
C1095      C1096   1.206       .  T
C1097      C1098   1.204       .  T
C1099      C1100   1.204       .  T
C1101      C1102   1.205       .  T
C1103      C1104   1.206       .  T
C1105      C1106   1.204       .  T
C1107      C1396   1.207       .  T
C1109      C1110   1.205       .  T
C1111      C1112   1.207       .  T
C1113      C1114   1.204       .  T
C1115      C1116   1.204       .  T
C1117      C1118   1.205       .  T
C1119      C1120   1.206       .  T
C1121      C1122   1.205       .  T
C1124      C1411   1.206       .  T
C1125      C1126   1.206       .  T
C1127      C1128   1.206       .  T
C1129      C1130   1.205   1_545  T
C1131      C1132   1.205   1_455  T
C1133      C1134   1.205       .  T
C1135      C1136   1.205   1_655  T
C1136      C1194   1.434       .  S
C1137      C1138   1.205       .  T
C1139      C1140   1.206   1_545  T
C1141      C1142   1.205       .  T
C1143      C1144   1.205       .  T
C1145      C1146   1.206       .  T
C1148      C1435   1.205       .  T
C1150      C1437   1.205       .  T
C1151      C1152   1.207       .  T
O1153     Ni1161   1.923       .  S
O1154     Ni1161   1.923       .  S
O1155     Ni1161   1.913       .  S
O1156     Ni1161   1.912       .  S
O1157     Ni1162   1.921       .  S
O1157      C1166   1.280       .  A
O1158     Ni1162   1.920       .  S
O1158      C1165   1.280       .  A
O1159     Ni1162   1.916       .  S
O1159      C1164   1.278       .  A
O1160     Ni1162   1.914       .  S
O1160      C1163   1.278       .  A
Ni1162    Ni1449   2.392       .  S
C1163      O1441   1.280       .  A
C1163      C1721   1.436       .  S
C1164      O1442   1.280       .  A
C1164      C1439   1.437       .  S
C1165      O1443   1.278       .  A
C1165      C1438   1.433       .  S
C1166      O1444   1.278       .  A
C1166      C1436   1.434       .  S
O1167     Ni1175   1.924       .  S
O1167      C1177   1.280       .  A
O1168     Ni1175   1.923       .  S
O1168      C1178   1.280       .  A
O1169     Ni1175   1.912       .  S
O1169      C1179   1.278       .  A
O1170     Ni1175   1.912       .  S
O1170      C1180   1.278       .  A
O1171     Ni1176   1.921       .  S
O1171      C1180   1.280       .  A
O1172     Ni1176   1.920       .  S
O1172      C1179   1.280       .  A
O1173     Ni1176   1.916       .  S
O1173      C1178   1.278       .  A
O1174     Ni1176   1.913       .  S
O1174      C1177   1.278       .  A
Ni1175    Ni1176   2.392       .  S
C1177      C1428   1.436       .  S
C1178      C1440   1.437       .  S
C1179      C1431   1.433       .  S
C1180      C1430   1.433       .  S
O1181     Ni1189   1.920       .  S
O1181      C1191   1.279       .  A
O1182     Ni1189   1.920       .  S
O1182      C1480   1.280       .  A
O1183     Ni1189   1.912       .  S
O1183      C1481   1.278       .  A
O1184     Ni1189   1.912       .  S
O1184      C1482   1.278       .  A
O1185     Ni1190   1.922       .  S
O1185      C1194   1.280       .  A
O1186     Ni1190   1.921       .  S
O1186      C1193   1.280       .  A
O1187     Ni1190   1.915       .  S
O1187      C1192   1.278       .  A
O1188     Ni1190   1.913       .  S
Ni1189    Ni1478   2.393       .  S
C1191      O1476   1.278       .  A
C1191      C1422   1.433       .  S
C1192      C1426   1.434       .  S
C1193      C1437   1.433       .  S
O1195     Ni1203   1.920       .  S
O1195      C1205   1.279       .  A
O1196     Ni1203   1.919       .  S
O1196      C1206   1.280       .  A
O1197     Ni1203   1.912       .  S
O1197      C1207   1.278       .  A
O1198     Ni1203   1.912       .  S
O1198      C1208   1.278       .  A
O1199     Ni1204   1.921       .  S
O1199      C1208   1.280       .  A
O1200     Ni1492   1.920       .  S
O1200      C1495   1.280       .  A
O1201     Ni1492   1.915       .  S
O1201      C1494   1.278       .  A
O1202     Ni1204   1.913       .  S
O1202      C1205   1.278       .  A
Ni1203    Ni1204   2.393       .  S
C1205      C1418   1.433       .  S
C1206      C1425   1.434       .  S
C1207      C1432   1.433       .  S
C1208      C1419   1.433       .  S
O1209     Ni1505   1.921       .  S
O1209      C1507   1.280       .  A
O1210     Ni1217   1.921       .  S
O1210      C1220   1.280       .  A
O1211     Ni1217   1.913       .  S
O1211      C1221   1.278       .  A
O1212     Ni1217   1.913       .  S
O1212      C1222   1.278       .  A
O1213     Ni1218   1.923       .  S
O1213      C1222   1.281       .  A
O1214     Ni1218   1.924       .  S
O1214      C1221   1.280       .  A
O1215     Ni1218   1.915       .  S
O1215      C1220   1.278       .  A
O1216     Ni1218   1.914       .  S
O1216      C1219   1.278       .  A
Ni1217    Ni1218   2.391       .  S
C1219      C1411   1.435       .  S
C1220      C1415   1.435       .  S
C1221      C1434   1.436       .  S
C1222      C1413   1.435       .  S
O1223     Ni1231   1.923       .  S
O1223      C1233   1.280       .  A
O1224     Ni1231   1.922       .  S
O1224      C1234   1.280       .  A
O1225     Ni1231   1.913       .  S
O1225      C1235   1.278       .  A
O1226     Ni1231   1.913       .  S
O1226      C1236   1.278       .  A
O1227     Ni1232   1.919       .  S
O1227      C1236   1.280       .  A
O1228     Ni1232   1.920       .  S
O1228      C1235   1.280       .  A
O1229     Ni1232   1.914       .  S
O1229      C1234   1.278       .  A
O1230     Ni1232   1.912       .  S
O1230      C1233   1.278       .  A
Ni1231    Ni1232   2.392       .  S
C1233      C1407   1.434       .  S
C1234      C1416   1.435       .  S
C1235      C1421   1.433       .  S
C1236      C1410   1.433       .  S
O1237     Ni1245   1.920       .  S
O1237      C1247   1.279       .  A
O1238     Ni1245   1.919       .  S
O1239     Ni1245   1.913       .  S
O1239      C1249   1.278       .  A
O1240     Ni1245   1.914       .  S
O1240      C1250   1.278       .  A
O1241     Ni1246   1.922       .  S
O1241      C1538   1.281       .  A
O1242     Ni1246   1.924       .  S
O1242      C1537   1.280       .  A
O1243     Ni1246   1.914       .  S
O1243      C1248   1.278       .  A
O1244     Ni1246   1.912       .  S
O1244      C1535   1.278       .  A
Ni1246    Ni1533   2.392       .  S
C1247      C1403   1.433       .  S
C1248      O1526   1.280       .  A
C1248      C1405   1.433       .  S
C1249      C1427   1.436       .  S
C1250      C1414   1.435       .  S
O1251     Ni1259   1.920       .  S
O1251      C1261   1.279       .  A
O1252     Ni1259   1.919       .  S
O1252      C1262   1.280       .  A
O1253     Ni1259   1.913       .  S
O1253      C1263   1.278       .  A
O1254     Ni1259   1.913       .  S
O1254      C1264   1.278       .  A
O1255     Ni1260   1.919       .  S
O1255      C1264   1.280       .  A
O1256     Ni1260   1.920       .  S
O1256      C1263   1.280       .  A
O1258     Ni1260   1.912       .  S
O1258      C1261   1.278       .  A
Ni1259    Ni1260   2.393       .  S
Ni1260     O1545   1.914       .  S
C1261      C1401   1.433       .  S
C1262      O1545   1.278       .  A
C1262      C1406   1.433       .  S
C1263      C1417   1.433       .  S
C1264      C1409   1.433       .  S
O1265     Ni1273   1.923       .  S
O1266     Ni1561   1.923       .  S
O1266      C1276   1.280       .  A
O1267     Ni1561   1.912       .  S
O1267      C1277   1.278       .  A
O1268     Ni1273   1.912       .  S
O1269     Ni1274   1.922       .  S
O1269      C1278   1.280       .  A
O1270     Ni1274   1.922       .  S
O1270      C1277   1.280       .  A
O1271     Ni1274   1.916       .  S
O1271      C1276   1.278       .  A
O1272     Ni1274   1.915       .  S
O1272      C1275   1.278       .  A
Ni1274    Ni1561   2.392       .  S
C1275      O1553   1.280       .  A
C1275      C1395   1.436       .  S
C1276      C1400   1.437       .  S
C1277      C1397   1.434       .  S
C1278      O1556   1.278       .  A
C1278      C1412   1.434       .  S
O1279     Ni1287   1.923       .  S
O1279      C1289   1.280       .  A
O1280     Ni1287   1.923       .  S
O1280      C1290   1.280       .  A
O1281     Ni1287   1.912       .  S
O1281      C1291   1.278       .  A
O1282     Ni1287   1.911       .  S
O1282      C1292   1.278       .  A
O1283     Ni1288   1.920       .  S
O1283      C1292   1.280       .  A
O1284     Ni1288   1.919       .  S
O1284      C1291   1.280       .  A
O1285     Ni1288   1.916       .  S
O1285      C1290   1.278       .  A
O1286     Ni1288   1.914       .  S
O1286      C1289   1.278       .  A
Ni1287    Ni1288   2.392       .  S
C1289      C1391   1.436       .  S
C1290      C1399   1.438       .  S
C1291      C1393   1.432       .  S
C1292      C1404   1.432       .  S
O1293     Ni1301   1.920       .  S
O1293      C1303   1.279       .  A
O1294     Ni1301   1.919       .  S
O1294      C1592   1.280       .  A
O1295     Ni1301   1.914       .  S
O1295      C1305   1.278       .  A
O1296     Ni1301   1.913       .  S
O1296      C1306   1.279       .  A
O1297     Ni1302   1.921       .  S
O1298     Ni1302   1.920       .  S
O1299     Ni1302   1.914       .  S
O1299      C1304   1.278       .  A
O1300     Ni1302   1.912       .  S
Ni1301    Ni1590   2.393       .  S
C1303      O1588   1.278       .  A
C1303      C1387   1.432       .  S
C1304      C1389   1.433       .  S
C1305      O1586   1.280       .  A
C1305      C1398   1.434       .  S
C1306      O1585   1.280       .  A
C1306      C1408   1.434   1_655  S
O1307     Ni1315   1.920       .  S
O1307      C1317   1.279       .  A
O1308     Ni1315   1.919       .  S
O1308      C1318   1.280       .  A
O1309     Ni1315   1.912       .  S
O1309      C1319   1.278       .  A
O1310     Ni1315   1.912       .  S
O1310      C1320   1.278       .  A
O1311     Ni1316   1.920       .  S
O1311      C1320   1.280       .  A
O1312     Ni1316   1.920       .  S
O1312      C1319   1.280       .  A
O1313     Ni1604   1.914       .  S
O1313      C1606   1.278       .  A
O1314     Ni1316   1.913       .  S
O1314      C1317   1.278       .  A
Ni1315    Ni1316   2.393       .  S
C1317      C1385   1.433       .  S
C1318      C1390   1.433       .  S
C1319      C1394   1.432       .  S
C1320      C1402   1.433   1_655  S
O1321     Ni1329   1.922       .  S
O1321      C1619   1.280       .  A
O1322      C1332   1.280       .  A
O1323     Ni1329   1.914       .  S
O1323      C1621   1.279       .  A
O1324     Ni1329   1.914       .  S
O1324      C1622   1.278       .  A
O1325     Ni1330   1.922       .  S
O1325      C1334   1.280       .  A
O1326     Ni1330   1.923       .  S
O1326      C1333   1.280       .  A
O1327     Ni1330   1.914       .  S
O1327      C1332   1.278       .  A
O1328     Ni1330   1.912       .  S
O1328      C1331   1.278       .  A
Ni1329     O1610   1.921       .  S
Ni1329    Ni1618   2.392       .  S
C1331      C1435   1.434       .  S
C1332      C1383   1.435       .  S
C1333      C1396   1.436       .  S
C1334      C1381   1.435       .  S
O1335     Ni1343   1.921       .  S
O1335      C1345   1.279       .  A
O1336     Ni1343   1.920       .  S
O1336      C1346   1.280       .  A
O1337     Ni1343   1.911       .  S
O1337      C1347   1.278       .  A
O1338     Ni1343   1.912       .  S
O1338      C1348   1.278       .  A
O1339     Ni1344   1.919       .  S
O1339      C1348   1.280       .  A
O1340     Ni1344   1.920       .  S
O1340      C1347   1.280       .  A
O1341     Ni1344   1.915       .  S
O1341      C1346   1.278       .  A
O1342     Ni1344   1.913       .  S
O1342      C1345   1.278       .  A
Ni1343    Ni1344   2.392       .  S
C1345      C1423   1.434       .  S
C1346      C1384   1.435       .  S
C1347      C1388   1.432       .  S
C1348      C1380   1.432       .  S
O1349     Ni1357   1.921       .  S
O1349      C1359   1.279       .  A
O1350     Ni1357   1.920       .  S
O1351     Ni1357   1.914       .  S
O1351      C1361   1.279       .  A
O1352     Ni1357   1.914       .  S
O1353     Ni1358   1.922       .  S
O1353      C1362   1.280       .  A
O1354     Ni1358   1.923       .  S
O1354      C1649   1.280       .  A
O1355     Ni1358   1.914       .  S
O1355      C1360   1.278       .  A
O1356     Ni1358   1.912       .  S
O1356      C1647   1.278       .  A
Ni1358    Ni1645   2.392       .  S
C1359      C1429   1.433       .  S
C1360      O1638   1.280       .  A
C1360      C1378   1.434       .  S
C1361      C1392   1.436   1_565  S
C1362      O1640   1.278       .  A
C1362      C1670   1.435       .  S
O1363     Ni1371   1.920       .  S
O1363      C1373   1.279       .  A
O1364     Ni1371   1.920       .  S
O1364      C1374   1.280       .  A
O1365     Ni1371   1.911       .  S
O1365      C1375   1.278       .  A
O1366     Ni1371   1.912       .  S
O1366      C1376   1.278       .  A
O1367     Ni1372   1.920       .  S
O1367      C1376   1.280       .  A
O1368     Ni1372   1.920       .  S
O1368      C1375   1.280       .  A
O1370     Ni1372   1.913       .  S
O1370      C1373   1.278       .  A
Ni1371    Ni1372   2.392       .  S
Ni1372     O1657   1.915       .  S
C1373      C1420   1.433       .  S
C1374      O1657   1.278       .  A
C1374      C1377   1.434       .  S
C1375      C1386   1.433   1_565  S
C1376      C1379   1.432       .  S
C1377      C1378   1.205       .  T
C1379      C1380   1.204       .  T
C1381      C1382   1.206       .  T
C1383      C1384   1.206       .  T
C1385      C1386   1.204       .  T
C1387      C1388   1.204       .  T
C1389      C1390   1.205       .  T
C1391      C1392   1.206       .  T
C1393      C1394   1.204       .  T
C1395      C1684   1.207       .  T
C1397      C1398   1.205       .  T
C1399      C1400   1.207       .  T
C1401      C1402   1.204       .  T
C1403      C1404   1.204       .  T
C1405      C1406   1.205       .  T
C1407      C1408   1.206       .  T
C1409      C1410   1.205       .  T
C1412      C1699   1.205       .  T
C1413      C1414   1.206       .  T
C1415      C1416   1.206       .  T
C1417      C1418   1.205   1_545  T
C1419      C1420   1.205   1_455  T
C1421      C1422   1.205       .  T
C1423      C1424   1.205   1_655  T
C1424      C1482   1.434       .  S
C1425      C1426   1.205       .  T
C1427      C1428   1.206   1_545  T
C1429      C1430   1.205       .  T
C1431      C1432   1.204       .  T
C1433      C1434   1.206       .  T
C1436      C1723   1.205       .  T
C1438      C1725   1.205       .  T
C1439      C1440   1.207       .  T
O1441     Ni1449   1.924       .  S
O1442     Ni1449   1.923       .  S
O1443     Ni1449   1.913       .  S
O1444     Ni1449   1.913       .  S
O1445     Ni1450   1.921       .  S
O1445      C1454   1.280       .  A
O1446     Ni1450   1.920       .  S
O1446      C1453   1.280       .  A
O1447     Ni1450   1.916       .  S
O1447      C1452   1.278       .  A
O1448     Ni1450   1.914       .  S
O1448      C1451   1.278   1_556  A
C1452      C1727   1.437       .  S
C1453      C1726   1.433       .  S
C1454      C1724   1.434       .  S
O1455     Ni1463   1.924       .  S
O1455      C1465   1.280       .  A
O1456     Ni1463   1.923       .  S
O1456      C1466   1.280       .  A
O1457     Ni1463   1.912       .  S
O1457      C1467   1.278       .  A
O1458     Ni1463   1.912       .  S
O1458      C1468   1.278       .  A
O1459     Ni1464   1.920       .  S
O1459      C1468   1.280       .  A
O1460     Ni1464   1.920       .  S
O1460      C1467   1.280       .  A
O1461     Ni1464   1.916       .  S
O1461      C1466   1.278       .  A
O1462     Ni1464   1.913       .  S
O1462      C1465   1.278       .  A
Ni1463    Ni1464   2.392       .  S
C1465      C1716   1.436       .  S
C1466      C1728   1.437       .  S
C1467      C1719   1.433       .  S
C1468      C1718   1.433       .  S
O1469     Ni1477   1.920       .  S
O1469      C1479   1.279       .  A
O1470     Ni1477   1.920       .  S
O1471     Ni1477   1.912       .  S
O1472     Ni1477   1.912       .  S
O1473     Ni1478   1.922       .  S
O1473      C1482   1.280       .  A
O1474     Ni1478   1.921       .  S
O1474      C1481   1.280       .  A
O1475     Ni1478   1.915       .  S
O1475      C1480   1.278       .  A
O1476     Ni1478   1.913       .  S
C1479      C1710   1.433       .  S
C1480      C1714   1.434       .  S
C1481      C1725   1.433       .  S
O1483     Ni1491   1.920       .  S
O1483      C1493   1.279       .  A
O1484     Ni1491   1.919       .  S
O1484      C1494   1.280       .  A
O1485     Ni1491   1.912       .  S
O1485      C1495   1.278       .  A
O1486     Ni1491   1.912       .  S
O1486      C1496   1.278       .  A
O1487     Ni1492   1.921       .  S
O1487      C1496   1.280       .  A
O1490     Ni1492   1.913       .  S
O1490      C1493   1.278       .  A
Ni1491    Ni1492   2.393       .  S
C1493      C1706   1.433       .  S
C1494      C1713   1.434       .  S
C1495      C1720   1.433       .  S
C1496      C1707   1.433       .  S
O1498     Ni1505   1.921       .  S
O1498      C1508   1.280       .  A
O1499     Ni1505   1.913       .  S
O1499      C1509   1.278       .  A
O1500     Ni1505   1.913       .  S
O1500      C1510   1.278       .  A
O1501     Ni1506   1.923       .  S
O1501      C1510   1.281       .  A
O1502     Ni1506   1.924       .  S
O1502      C1509   1.280       .  A
O1503     Ni1506   1.915       .  S
O1503      C1508   1.278       .  A
O1504     Ni1506   1.914       .  S
O1504      C1507   1.278       .  A
Ni1505    Ni1506   2.391       .  S
C1507      C1699   1.434       .  S
C1508      C1703   1.435       .  S
C1509      C1722   1.436       .  S
C1510      C1701   1.435       .  S
O1511     Ni1519   1.922       .  S
O1511      C1521   1.280       .  A
O1512     Ni1519   1.922       .  S
O1512      C1522   1.280       .  A
O1513     Ni1519   1.913       .  S
O1513      C1523   1.278       .  A
O1514     Ni1519   1.913       .  S
O1514      C1524   1.278       .  A
O1515     Ni1520   1.919       .  S
O1515      C1524   1.280       .  A
O1516     Ni1520   1.920       .  S
O1516      C1523   1.280       .  A
O1517     Ni1520   1.914       .  S
O1517      C1522   1.278       .  A
O1518     Ni1520   1.912       .  S
O1518      C1521   1.278       .  A
Ni1519    Ni1520   2.392       .  S
C1521      C1695   1.434       .  S
C1522      C1704   1.435       .  S
C1523      C1709   1.433       .  S
C1524      C1698   1.433       .  S
O1525     Ni1533   1.920       .  S
O1525      C1535   1.279       .  A
O1526     Ni1533   1.919       .  S
O1527     Ni1533   1.913       .  S
O1527      C1537   1.278       .  A
O1528     Ni1533   1.914       .  S
O1528      C1538   1.278       .  A
O1529     Ni1534   1.922       .  S
O1530     Ni1534   1.924       .  S
O1531     Ni1534   1.914       .  S
O1531      C1536   1.278       .  A
O1532     Ni1534   1.912   1_554  S
C1535      C1691   1.432       .  S
C1536      C1693   1.433       .  S
C1537      C1715   1.436       .  S
C1538      C1702   1.435       .  S
O1539     Ni1547   1.920       .  S
O1539      C1549   1.279       .  A
O1540     Ni1547   1.919       .  S
O1540      C1550   1.280       .  A
O1541     Ni1547   1.913       .  S
O1541      C1551   1.278       .  A
O1542     Ni1547   1.913       .  S
O1542      C1552   1.278       .  A
O1543     Ni1548   1.919       .  S
O1543      C1552   1.280       .  A
O1544     Ni1548   1.920       .  S
O1544      C1551   1.280       .  A
O1546     Ni1548   1.912       .  S
O1546      C1549   1.278       .  A
Ni1547    Ni1548   2.393       .  S
C1549      C1689   1.433       .  S
C1550      C1694   1.433       .  S
C1551      C1705   1.433       .  S
C1552      C1697   1.433       .  S
O1553     Ni1561   1.923       .  S
O1554      C1564   1.280       .  A
O1555      C1565   1.278   1_554  A
O1556     Ni1561   1.912       .  S
O1557     Ni1562   1.922       .  S
O1557      C1566   1.280       .  A
O1558     Ni1562   1.922       .  S
O1558      C1565   1.280       .  A
O1559     Ni1562   1.916       .  S
O1559      C1564   1.278       .  A
O1560     Ni1562   1.915       .  S
O1560      C1563   1.278   1_556  A
C1563      C1683   1.436       .  S
C1564      C1688   1.437       .  S
C1565      C1685   1.434       .  S
C1566      C1700   1.434       .  S
O1567     Ni1575   1.923       .  S
O1567      C1577   1.280       .  A
O1568     Ni1575   1.923       .  S
O1568      C1578   1.280       .  A
O1569     Ni1575   1.912       .  S
O1569      C1579   1.278       .  A
O1570     Ni1575   1.911       .  S
O1570      C1580   1.278       .  A
O1571     Ni1576   1.920       .  S
O1571      C1580   1.280       .  A
O1572     Ni1576   1.919       .  S
O1572      C1579   1.280       .  A
O1573     Ni1576   1.916       .  S
O1573      C1578   1.278       .  A
O1574     Ni1576   1.914       .  S
O1574      C1577   1.278       .  A
Ni1575    Ni1576   2.392       .  S
C1577      C1679   1.436       .  S
C1578      C1687   1.437       .  S
C1579      C1681   1.432       .  S
C1580      C1692   1.432       .  S
O1581     Ni1589   1.920       .  S
O1581      C1591   1.279       .  A
O1582     Ni1589   1.919       .  S
O1583     Ni1589   1.914       .  S
O1583      C1593   1.278       .  A
O1584     Ni1589   1.913       .  S
O1584      C1594   1.279       .  A
O1585     Ni1590   1.921       .  S
O1586     Ni1590   1.920       .  S
O1587     Ni1590   1.914       .  S
O1587      C1592   1.278       .  A
O1588     Ni1590   1.912       .  S
C1591      C1675   1.432       .  S
C1592      C1677   1.433       .  S
C1593      C1686   1.434       .  S
C1594      C1696   1.434   1_655  S
O1595     Ni1603   1.920       .  S
O1595      C1605   1.279       .  A
O1596     Ni1603   1.919       .  S
O1596      C1606   1.279       .  A
O1597     Ni1603   1.912       .  S
O1597      C1607   1.278       .  A
O1598     Ni1603   1.912       .  S
O1598      C1608   1.278       .  A
O1599     Ni1604   1.920       .  S
O1599      C1608   1.280       .  A
O1600     Ni1604   1.919       .  S
O1600      C1607   1.280       .  A
O1602     Ni1604   1.912       .  S
O1602      C1605   1.278       .  A
Ni1603    Ni1604   2.393       .  S
C1605      C1673   1.433       .  S
C1606      C1678   1.433       .  S
C1607      C1682   1.432       .  S
C1608      C1690   1.433   1_655  S
O1609     Ni1617   1.922       .  S
O1610      C1620   1.280       .  A
O1611     Ni1617   1.914       .  S
O1612     Ni1617   1.914       .  S
O1613     Ni1618   1.922       .  S
O1613      C1622   1.280       .  A
O1614     Ni1618   1.923       .  S
O1614      C1621   1.280       .  A
O1615     Ni1618   1.914       .  S
O1615      C1620   1.278       .  A
O1616     Ni1618   1.912       .  S
O1616      C1619   1.278       .  A
C1619      C1723   1.434       .  S
C1620      C1671   1.435       .  S
C1621      C1684   1.436       .  S
C1622      C1669   1.435       .  S
O1623     Ni1631   1.921       .  S
O1623      C1633   1.279       .  A
O1624     Ni1631   1.920       .  S
O1624      C1634   1.280       .  A
O1625     Ni1631   1.911       .  S
O1625      C1635   1.278       .  A
O1626     Ni1631   1.912       .  S
O1626      C1636   1.278       .  A
O1627     Ni1632   1.919       .  S
O1627      C1636   1.280       .  A
O1628     Ni1632   1.920       .  S
O1628      C1635   1.280       .  A
O1629     Ni1632   1.915       .  S
O1629      C1634   1.278       .  A
O1630     Ni1632   1.913       .  S
O1630      C1633   1.278       .  A
Ni1631    Ni1632   2.392       .  S
C1633      C1711   1.434       .  S
C1634      C1672   1.435       .  S
C1635      C1676   1.432       .  S
C1636      C1668   1.432       .  S
O1637     Ni1645   1.920       .  S
O1637      C1647   1.279       .  A
O1638     Ni1645   1.920       .  S
O1639     Ni1645   1.914       .  S
O1639      C1649   1.279       .  A
O1640     Ni1645   1.914       .  S
O1641     Ni1646   1.922       .  S
O1641      C1650   1.280   1_556  A
O1642     Ni1646   1.923       .  S
O1643     Ni1646   1.914       .  S
O1643      C1648   1.278   1_556  A
O1644     Ni1646   1.912   1_554  S
C1647      C1717   1.433       .  S
C1648      C1666   1.434   1_554  S
C1649      C1680   1.436   1_565  S
O1651     Ni1659   1.920       .  S
O1651      C1661   1.279       .  A
O1652     Ni1659   1.920       .  S
O1652      C1662   1.280       .  A
O1653     Ni1659   1.911       .  S
O1653      C1663   1.278       .  A
O1654     Ni1659   1.912       .  S
O1654      C1664   1.278       .  A
O1655     Ni1660   1.920       .  S
O1655      C1664   1.280       .  A
O1656     Ni1660   1.920       .  S
O1656      C1663   1.280       .  A
O1658     Ni1660   1.913       .  S
O1658      C1661   1.278       .  A
Ni1659    Ni1660   2.392       .  S
C1661      C1708   1.433       .  S
C1662      C1665   1.434       .  S
C1663      C1674   1.432   1_565  S
C1664      C1667   1.432       .  S
C1665      C1666   1.205       .  T
C1667      C1668   1.204       .  T
C1669      C1670   1.206       .  T
C1671      C1672   1.206       .  T
C1673      C1674   1.204       .  T
C1675      C1676   1.204       .  T
C1677      C1678   1.205       .  T
C1679      C1680   1.206       .  T
C1681      C1682   1.204       .  T
C1685      C1686   1.205       .  T
C1687      C1688   1.207       .  T
C1689      C1690   1.204       .  T
C1691      C1692   1.204       .  T
C1693      C1694   1.205       .  T
C1695      C1696   1.205       .  T
C1697      C1698   1.205       .  T
C1701      C1702   1.206       .  T
C1703      C1704   1.206       .  T
C1705      C1706   1.205   1_545  T
C1707      C1708   1.205   1_455  T
C1709      C1710   1.205       .  T
C1711      C1712   1.205   1_655  T
C1713      C1714   1.205       .  T
C1715      C1716   1.206   1_545  T
C1717      C1718   1.205       .  T
C1719      C1720   1.205       .  T
C1721      C1722   1.206       .  T
C1727      C1728   1.207       .  T
