geometry optimzed in LAMMPS
_audit_creation_date              2020-12-01 
_audit_creation_method            'lammps2cif' 
_symmetry_space_group_name_H-M    'P1' 
_symmetry_Int_Tables_number       1 
_symmetry_cell_setting            triclinic 
loop_ 
_symmetry_equiv_pos_as_xyz 
  x,y,z 
_cell_length_a                    35.94316172 
_cell_length_b                    35.758677317758455 
_cell_length_c                    35.48828476177615 
_cell_angle_alpha                 89.19560276003624 
_cell_angle_beta                  89.99555991946842 
_cell_angle_gamma                 89.88748587356092 
loop_ 
_atom_site_label 
_atom_site_type_symbol 
_atom_site_fract_x 
_atom_site_fract_y 
_atom_site_fract_z 
_atom_site_charge 
O1          O  0.04678864  0.09376489  0.27941756    -0.69200
O2          O  0.45507972  0.09216844  0.22461452    -0.69400
O3          O  0.02755022  0.09190548  0.20636726    -0.69300
O4          O  0.47425467  0.09228280  0.29774048    -0.69300
O5          O  0.47269389  0.15310423  0.29682169    -0.69200
O6          O  0.02752020  0.15273177  0.20424712    -0.69200
O7          O  0.45533290  0.15301707  0.22335812    -0.69200
O8          O  0.04498213  0.15458642  0.27769705    -0.69400
V9          V  0.00091289  0.09370034  0.25202604     1.35200
V10         V  0.50016121  0.15217021  0.25057924     1.35200
C11         C  0.06122103  0.12490096  0.28764098     0.80100
C12         C  0.43993475  0.12279687  0.21475041     0.80100
C13         C  0.03659797  0.12183037  0.18975628     0.80000
C14         C  0.46419631  0.12233175  0.31271641     0.79900
C15         C  0.40112023  0.09632398  0.40453878     0.00100
O16         O  0.20306099  0.47489886  0.34211688    -0.69200
O17         O  0.29472817  0.02946710  0.34280914    -0.69400
O18         O  0.27565150  0.45673729  0.34027512    -0.69300
O19         O  0.22232890  0.04738629  0.34272108    -0.69300
O20         O  0.22258147  0.04623078  0.40402828    -0.69200
O21         O  0.27610777  0.45350112  0.40152000    -0.69200
O22         O  0.29446530  0.02625609  0.40406821    -0.69200
O23         O  0.20413449  0.47359834  0.40341406    -0.69400
V24         V  0.24896650  0.50204481  0.34315812     1.35200
V25         V  0.24932453  0.99990521  0.40205263     1.36400
C26         C  0.18820456  0.46528794  0.37316046     0.80100
C27         C  0.30974324  0.03723234  0.37405406     0.80100
C28         C  0.28488308  0.43962375  0.37005178     0.80000
C29         C  0.21353401  0.06232428  0.37332182     0.79900
O30         O  0.27754404  0.04645182  0.09784037    -0.69200
O31         O  0.22333793  0.45434998  0.09547904    -0.69400
O32         O  0.20543777  0.02724581  0.09533174    -0.69300
O33         O  0.29541337  0.47345940  0.09610216    -0.69300
O34         O  0.29506256  0.47082950  0.15737982    -0.69200
O35         O  0.20372455  0.02629168  0.15661381    -0.69200
O36         O  0.22252837  0.45362465  0.15678139    -0.69200
O37         O  0.27633344  0.04372879  0.15909690    -0.69400
V38         V  0.25043654  0.00036353  0.09738665     1.35200
V39         V  0.24945251  0.49868255  0.15628016     1.35200
C40         C  0.28594429  0.06053147  0.12929650     0.80100
C41         C  0.21386322  0.43859281  0.12621029     0.80100
C42         C  0.18924597  0.03590310  0.12537545     0.80000
C43         C  0.31036769  0.46266219  0.12637541     0.79900
C44         C  0.34753534  0.15205840  0.15601088     0.00100
O45         O  0.34392848  0.20438793  0.47300100    -0.69200
O46         O  0.34406891  0.29554945  0.02848193    -0.69400
O47         O  0.34300118  0.27778837  0.45521647    -0.69300
O48         O  0.34365834  0.22218360  0.04629130    -0.69300
O49         O  0.40417611  0.22143774  0.04630496    -0.69200
O50         O  0.40350734  0.27847677  0.45434923    -0.69200
O51         O  0.40457483  0.29463148  0.02794955    -0.69200
O52         O  0.40443207  0.20526368  0.47269675    -0.69400
V53         V  0.34486804  0.24994380  0.50075134     1.35200
V54         V  0.40294079  0.24997947  0.00032402     1.35200
C55         C  0.37452057  0.18953323  0.46358064     0.80100
C56         C  0.37474226  0.31038970  0.03745849     0.80100
C57         C  0.37279849  0.28774155  0.43938746     0.80000
C58         C  0.37369666  0.21220848  0.06168552     0.79900
C59         C  0.34700330  0.34764523  0.34437269     0.00100
C60         C  0.40184941  0.40351804  0.09618188     0.00100
O61         O  0.04682116  0.40593006  0.22134155    -0.69200
O62         O  0.45501030  0.40688389  0.27613520    -0.69400
O63         O  0.02740673  0.40765904  0.29439003    -0.69300
O64         O  0.47435676  0.40698313  0.20300434    -0.69300
O65         O  0.47390041  0.34614891  0.20352816    -0.69200
O66         O  0.02753349  0.34683834  0.29684375    -0.69200
O67         O  0.45557288  0.34604286  0.27685948    -0.69200
O68         O  0.04597812  0.34510748  0.22354798    -0.69400
V69         V  0.00090773  0.40568212  0.24873182     1.35200
V70         V  0.50076499  0.34721353  0.25014983     1.35200
C71         C  0.06174120  0.37490872  0.21330833     0.80100
C72         C  0.43998783  0.37616260  0.28573747     0.80100
C73         C  0.03636405  0.37782277  0.31124400     0.80000
C74         C  0.46500218  0.37690535  0.18774286     0.79900
C75         C  0.15303021  0.15467920  0.34634438     0.00100
C76         C  0.09703622  0.40565491  0.40336496     0.00100
C77         C  0.15331552  0.34636409  0.15312324     0.00100
C78         C  0.09694331  0.09548515  0.09659850     0.00100
O79         O  0.15490120  0.20459587  0.02812429    -0.69200
O80         O  0.15576347  0.29624305  0.47128707    -0.69400
O81         O  0.15612694  0.27766191  0.04472108    -0.69300
O82         O  0.15597033  0.22316703  0.45470670    -0.69300
O83         O  0.09543566  0.22295794  0.45407826    -0.69200
O84         O  0.09560310  0.27904742  0.04496161    -0.69200
O85         O  0.09523831  0.29581741  0.47123997    -0.69200
O86         O  0.09439395  0.20615224  0.02785798    -0.69400
V87         V  0.15454199  0.25049062  0.99969418     1.35200
V88         V  0.09635868  0.25089705  0.49955060     1.35200
C89         C  0.12410580  0.19000196  0.03747921     0.80100
C90         C  0.12522776  0.31142509  0.46182322     0.80100
C91         C  0.12624590  0.28775721  0.06001930     0.80000
C92         C  0.12603419  0.21367321  0.43921055     0.79900
C93         C  0.50027123  0.50020443  0.50038155     0.00100
C94         C  0.25108169  0.25017070  0.24976460     0.00100
C95         C  0.12171494  0.15561817  0.05859617    -0.10700
C96         C  0.11272704  0.12771549  0.07579965    -0.12200
C97         C  0.07476633  0.07166073  0.03180445    -0.10800
C98         C  0.07330267  0.06988929  0.07154512     0.11400
C99         C  0.05035438  0.04228252  0.08807823    -0.10800
C100        C  0.02755070  0.01951236  0.06605532    -0.10800
C101        C  0.02670891  0.02329785  0.02630729     0.11400
C102        C  0.05257551  0.04832689  0.00979716    -0.10800
H103        H  0.09322682  0.09090670  0.01732656     0.15400
H104        H  0.04971135  0.03859852  0.11841463     0.15400
H105        H  0.51100786  0.99883428  0.08078787     0.15400
H106        H  0.05448363  0.05089800  0.97941232     0.15400
C107        C  0.12821010  0.30890161  0.09384402    -0.10700
C108        C  0.13706345  0.32612659  0.12134500    -0.12200
C109        C  0.17711410  0.28176319  0.17663977    -0.10800
C110        C  0.17723985  0.32115253  0.17897661     0.11400
C111        C  0.19940734  0.33719651  0.20716556    -0.10800
C112        C  0.22269557  0.31517906  0.23008034    -0.10800
C113        C  0.22478945  0.27592558  0.22583541     0.11400
C114        C  0.19966472  0.25972340  0.20022759    -0.10800
H115        H  0.15941466  0.26755367  0.15685879     0.15400
H116        H  0.19902998  0.36718670  0.21118720     0.15400
H117        H  0.23844528  0.32944896  0.25135134     0.15400
H118        H  0.19857198  0.22959610  0.19746224     0.15400
C119        C  0.11397160  0.37383486  0.42390087    -0.10700
C120        C  0.12334371  0.34591046  0.44087530    -0.12200
C121        C  0.07441646  0.42838663  0.46854075    -0.10800
C122        C  0.07356196  0.43111154  0.42880796     0.11400
C123        C  0.05105090  0.45932258  0.41258027    -0.10800
C124        C  0.02811697  0.48185174  0.43479176    -0.10800
C125        C  0.02670561  0.47720240  0.47444506     0.11400
C126        C  0.05219643  0.45158619  0.49077042    -0.10800
H127        H  0.09238571  0.40850244  0.48285752     0.15400
H128        H  0.05082380  0.46361894  0.38230085     0.15400
H129        H  0.51192312  0.50303999  0.42031309     0.15400
H130        H  0.05370275  0.44840289  0.52113257     0.15400
C131        C  0.13677759  0.17514905  0.37798963    -0.10700
C132        C  0.12790114  0.19251957  0.40539995    -0.12200
C133        C  0.17640097  0.21916233  0.32226154    -0.10800
C134        C  0.17658310  0.17975722  0.32008836     0.11400
C135        C  0.19869449  0.16355821  0.29189594    -0.10800
C136        C  0.22210663  0.18542018  0.26904310    -0.10800
C137        C  0.22438250  0.22464766  0.27336880     0.11400
C138        C  0.19907807  0.24104682  0.29873108    -0.10800
H139        H  0.15866577  0.23350387  0.34198333     0.15400
H140        H  0.19829784  0.13356918  0.28794047     0.15400
H141        H  0.23789896  0.17104089  0.24781985     0.15400
H142        H  0.19803503  0.27117387  0.30145007     0.15400
C143        C  0.09577248  0.37225515  0.19253998    -0.10700
C144        C  0.12273627  0.36265330  0.17490911    -0.12200
C145        C  0.07414520  0.38983623  0.37313376    -0.10700
C146        C  0.05654478  0.38039814  0.34593505    -0.12200
C147        C  0.44396215  0.37895057  0.15344010    -0.10700
C148        C  0.42539705  0.38793463  0.12644640    -0.12200
C149        C  0.45130531  0.41259799  0.04519925    -0.10800
C150        C  0.42557004  0.42875076  0.07009102     0.11400
C151        C  0.42368321  0.46821376  0.07076440    -0.10800
C152        C  0.44732137  0.49030546  0.04828776    -0.10800
C153        C  0.47398757  0.47417468  0.02413972     0.11400
C154        C  0.47396444  0.43467695  0.02180655    -0.10800
H155        H  0.45359452  0.38245039  0.04340900     0.15400
H156        H  0.40468571  0.48241614  0.08935198     0.15400
H157        H  0.44536249  0.02045746  0.05033411     0.15400
H158        H  0.49111444  0.42000937  0.00200053     0.15400
C159        C  0.40592044  0.37414869  0.30660918    -0.10700
C160        C  0.37854315  0.36455298  0.32384896    -0.12200
C161        C  0.32598246  0.32165015  0.27994415    -0.10800
C162        C  0.32371582  0.32136452  0.31969135     0.11400
C163        C  0.29861691  0.29605129  0.33667256    -0.10800
C164        C  0.27710274  0.27177678  0.31512014    -0.10800
C165        C  0.27733443  0.27374910  0.27528220     0.11400
C166        C  0.30336852  0.29830522  0.25832433    -0.10800
H167        H  0.34452891  0.34056483  0.26512929     0.15400
H168        H  0.29605034  0.29450771  0.36705363     0.15400
H169        H  0.26044540  0.25167664  0.33045139     0.15400
H170        H  0.30539338  0.30017152  0.22791067     0.15400
C171        C  0.38568930  0.37215690  0.07518617    -0.10700
C172        C  0.37684815  0.34458402  0.05808617    -0.12200
C173        C  0.37075854  0.30931296  0.40504632    -0.10700
C174        C  0.36250900  0.32700216  0.37703823    -0.12200
C175        C  0.36367367  0.17280402  0.12381437    -0.10700
C176        C  0.37211266  0.19059017  0.09597320    -0.12200
C177        C  0.32584789  0.17791983  0.22032768    -0.10800
C178        C  0.32405070  0.17837267  0.18055463     0.11400
C179        C  0.29934748  0.20402781  0.16335510    -0.10800
C180        C  0.27776692  0.22847212  0.18472043    -0.10800
C181        C  0.27748691  0.22635509  0.22454476     0.11400
C182        C  0.30313766  0.20145175  0.24175385    -0.10800
H183        H  0.34411647  0.15875728  0.23528885     0.15400
H184        H  0.29717901  0.20572572  0.13295888     0.15400
H185        H  0.26145585  0.24883897  0.16924498     0.15400
H186        H  0.30478148  0.19947926  0.27218025     0.15400
C187        C  0.19332041  0.40433292  0.12774679    -0.10700
C188        C  0.17564637  0.37706391  0.13694586    -0.12200
C189        C  0.34394825  0.44116011  0.12412692    -0.10700
C190        C  0.37083760  0.42376306  0.11392327    -0.12200
C191        C  0.15509337  0.05647550  0.12272082    -0.10700
C192        C  0.12789577  0.07390663  0.11301845    -0.12200
C193        C  0.32414204  0.12188830  0.14129274    -0.10700
C194        C  0.30633584  0.09482793  0.13233094    -0.12200
C195        C  0.32347563  0.37817616  0.35842408    -0.10700
C196        C  0.30540970  0.40528124  0.36702626    -0.12200
C197        C  0.12714104  0.42746234  0.38582094    -0.10700
C198        C  0.15400810  0.44494587  0.37550227    -0.12200
C199        C  0.17566937  0.12420712  0.36265285    -0.10700
C200        C  0.19328263  0.09683440  0.37184884    -0.12200
C201        C  0.38507178  0.12780876  0.42555850    -0.10700
C202        C  0.37643022  0.15537773  0.44283481    -0.12200
C203        C  0.34328222  0.05858514  0.37684417    -0.10700
C204        C  0.37005620  0.07598532  0.38715526    -0.12200
C205        C  0.45095497  0.08755517  0.45519924    -0.10800
C206        C  0.42515635  0.07125106  0.43053944     0.11400
C207        C  0.42350529  0.03178924  0.42997926    -0.10800
C208        C  0.44729354  0.00983788  0.45249331    -0.10800
C209        C  0.47379252  0.02611198  0.47664524     0.11400
C210        C  0.47372991  0.06562257  0.47868838    -0.10800
H211        H  0.45317494  0.11773024  0.45677076     0.15400
H212        H  0.40457877  0.01749967  0.41148299     0.15400
H213        H  0.44553363  0.47966106  0.45051851     0.15400
H214        H  0.49093445  0.08037846  0.49827842     0.15400
C215        C  0.37861489  0.13460343  0.17676823    -0.10700
C216        C  0.40588270  0.12465616  0.19397068    -0.12200
C217        C  0.12246179  0.13794636  0.32506560    -0.10700
C218        C  0.09538312  0.12785318  0.30801895    -0.12200
C219        C  0.07458839  0.11069008  0.12765660    -0.10700
C220        C  0.05705380  0.11953000  0.15515731    -0.12200
C221        C  0.42437848  0.11164455  0.37396545    -0.10700
C222        C  0.44290515  0.12030982  0.34686616    -0.12200
O223        O  0.04677928  0.09369336  0.77955230    -0.69200
O224        O  0.45508806  0.09206502  0.72471274    -0.69400
O225        O  0.02756144  0.09177776  0.70649041    -0.69300
O226        O  0.47424100  0.09224094  0.79785168    -0.69300
O227        O  0.47273638  0.15306366  0.79690882    -0.69200
O228        O  0.02748919  0.15260228  0.70429387    -0.69200
O229        O  0.45532028  0.15291323  0.72345344    -0.69200
O230        O  0.04501074  0.15451417  0.77773320    -0.69400
V231        V  0.00091227  0.09361415  0.75214306     1.35200
V232        V  0.50016828  0.15208321  0.75064735     1.35200
C233        C  0.06123027  0.12483364  0.78772888     0.80100
C234        C  0.43993762  0.12268726  0.71483500     0.80100
C235        C  0.03657206  0.12168936  0.68983150     0.80000
C236        C  0.46421862  0.12230592  0.81282036     0.79900
C237        C  0.40118296  0.09631771  0.90466258     0.00100
O238        O  0.20308085  0.47506479  0.84209357    -0.69200
O239        O  0.29479303  0.02954089  0.84288282    -0.69400
O240        O  0.27564938  0.45683010  0.84024227    -0.69300
O241        O  0.22241238  0.04752994  0.84281847    -0.69300
O242        O  0.22262961  0.04627086  0.90412546    -0.69200
O243        O  0.27611265  0.45352215  0.90148430    -0.69200
O244        O  0.29451058  0.02626876  0.90413980    -0.69200
O245        O  0.20415353  0.47364991  0.90339000    -0.69400
V246        V  0.24900985  0.50216222  0.84318589     1.35200
V247        V  0.24935636  0.99994102  0.90208215     1.36400
C248        C  0.18821901  0.46540560  0.87311873     0.80100
C249        C  0.30980414  0.03726285  0.87413940     0.80100
C250        C  0.28486260  0.43966916  0.86999847     0.80000
C251        C  0.21359671  0.06241331  0.87344100     0.79900
O252        O  0.27750070  0.04636870  0.59780186    -0.69200
O253        O  0.22320647  0.45431333  0.59550654    -0.69400
O254        O  0.20536954  0.02721932  0.59535580    -0.69300
O255        O  0.29529936  0.47336345  0.59607108    -0.69300
O256        O  0.29503415  0.47081977  0.65735196    -0.69200
O257        O  0.20365852  0.02620922  0.65663821    -0.69200
O258        O  0.22250895  0.45355626  0.65680996    -0.69200
O259        O  0.27626344  0.04370191  0.65905917    -0.69400
V260        V  0.25034664  0.00030419  0.59738082     1.35200
V261        V  0.24940457  0.49863637  0.65627842     1.35200
C262        C  0.28590716  0.06046736  0.62924808     0.80100
C263        C  0.21378344  0.43854086  0.62624676     0.80100
C264        C  0.18917388  0.03583711  0.62540854     0.80000
C265        C  0.31029893  0.46261598  0.62633802     0.79900
C266        C  0.34758674  0.15193243  0.65599122     0.00100
O267        O  0.34385848  0.20439703  0.97302040    -0.69200
O268        O  0.34415115  0.29548939  0.52851752    -0.69400
O269        O  0.34290454  0.27779672  0.95518545    -0.69300
O270        O  0.34373491  0.22211841  0.54629233    -0.69300
O271        O  0.40425228  0.22138925  0.54632965    -0.69200
O272        O  0.40341019  0.27852611  0.95432809    -0.69200
O273        O  0.40465759  0.29458841  0.52796998    -0.69200
O274        O  0.40436116  0.20531533  0.97268568    -0.69400
V275        V  0.34478459  0.24998117  0.00073737     1.35200
V276        V  0.40302445  0.24993029  0.50034466     1.35200
C277        C  0.37445935  0.18955035  0.96360726     0.80100
C278        C  0.37481993  0.31033807  0.53748438     0.80100
C279        C  0.37269739  0.28776656  0.93935881     0.80000
C280        C  0.37376989  0.21215036  0.56170012     0.79900
C281        C  0.34691527  0.34764024  0.84431499     0.00100
C282        C  0.40181839  0.40352415  0.59615386     0.00100
O283        O  0.04676686  0.40587087  0.72133013    -0.69200
O284        O  0.45495375  0.40690676  0.77613086    -0.69400
O285        O  0.02735862  0.40764927  0.79437573    -0.69300
O286        O  0.47430112  0.40697539  0.70300187    -0.69300
O287        O  0.47378696  0.34614167  0.70355065    -0.69200
O288        O  0.02746769  0.34682936  0.79684708    -0.69200
O289        O  0.45549357  0.34606555  0.77689063    -0.69200
O290        O  0.04587113  0.34504964  0.72354423    -0.69400
V291        V  0.00085235  0.40566865  0.74872487     1.35200
V292        V  0.50067276  0.34720037  0.75016384     1.35200
C293        C  0.06166144  0.37483428  0.71330184     0.80100
C294        C  0.43991835  0.37619514  0.78574800     0.80100
C295        C  0.03632260  0.37781648  0.81123025     0.80000
C296        C  0.46492154  0.37690192  0.68775076     0.79900
C297        C  0.15302283  0.15467981  0.84642124     0.00100
C298        C  0.09708372  0.40572479  0.90327333     0.00100
C299        C  0.15326810  0.34626629  0.65314706     0.00100
C300        C  0.09687176  0.09538204  0.59662254     0.00100
O301        O  0.15492071  0.20447813  0.52816918    -0.69200
O302        O  0.15580396  0.29637108  0.97127616    -0.69400
O303        O  0.15611655  0.27755163  0.54473526    -0.69300
O304        O  0.15596773  0.22330753  0.95467460    -0.69300
O305        O  0.09543258  0.22309822  0.95405880    -0.69200
O306        O  0.09559185  0.27887402  0.54500768    -0.69200
O307        O  0.09527821  0.29596272  0.97118538    -0.69200
O308        O  0.09441258  0.20598912  0.52787482    -0.69400
V309        V  0.15453533  0.25036454  0.49971827     1.35200
V310        V  0.09636528  0.25105356  0.99951740     1.35200
C311        C  0.12413068  0.18986795  0.53752054     0.80100
C312        C  0.12528022  0.31155437  0.96178055     0.80100
C313        C  0.12623368  0.28761816  0.56004860     0.80000
C314        C  0.12602774  0.21380908  0.93918874     0.79900
C315        C  0.50037422  0.50018230  0.00044453     0.00100
C316        C  0.25108746  0.25004270  0.74972720     0.00100
C317        C  0.12174210  0.15550289  0.55866718    -0.10700
C318        C  0.11270683  0.12761695  0.57587208    -0.12200
C319        C  0.07451506  0.07181083  0.53178230    -0.10800
C320        C  0.07323993  0.06982028  0.57152389     0.11400
C321        C  0.05045775  0.04205019  0.58801537    -0.10800
C322        C  0.02763704  0.01931584  0.56597211    -0.10800
C323        C  0.02660975  0.02330595  0.52624657     0.11400
C324        C  0.05232917  0.04849539  0.50975095    -0.10800
H325        H  0.09282890  0.09120775  0.51731490     0.15400
H326        H  0.04996058  0.03821214  0.61833574     0.15400
H327        H  0.51123918  0.99848646  0.58066290     0.15400
H328        H  0.05411111  0.05121157  0.47937020     0.15400
C329        C  0.12819493  0.30877457  0.59386809    -0.10700
C330        C  0.13703652  0.32601805  0.62136246    -0.12200
C331        C  0.17697964  0.28166062  0.67674394    -0.10800
C332        C  0.17721319  0.32105672  0.67898683     0.11400
C333        C  0.19950973  0.33710649  0.70706702    -0.10800
C334        C  0.22282456  0.31508283  0.72994726    -0.10800
C335        C  0.22480543  0.27581104  0.72579272     0.11400
C336        C  0.19956134  0.25961566  0.70029871    -0.10800
H337        H  0.15916870  0.26745294  0.65706344     0.15400
H338        H  0.19921909  0.36710673  0.71102701     0.15400
H339        H  0.23867950  0.32937028  0.75112355     0.15400
H340        H  0.19838213  0.22948381  0.69760708     0.15400
C341        C  0.11405892  0.37392564  0.92379974    -0.10700
C342        C  0.12342601  0.34601843  0.94080111    -0.12200
C343        C  0.07461919  0.42850810  0.96848420    -0.10800
C344        C  0.07361577  0.43115188  0.92874921     0.11400
C345        C  0.05097194  0.45926599  0.91254976    -0.10800
C346        C  0.02804669  0.48176225  0.93479915    -0.10800
C347        C  0.02678075  0.47718631  0.97446770     0.11400
C348        C  0.05240110  0.45167602  0.99075061    -0.10800
H349        H  0.09270876  0.40871309  0.98277403     0.15400
H350        H  0.05063136  0.46351001  0.88226587     0.15400
H351        H  0.51174220  0.50286924  0.92032596     0.15400
H352        H  0.05402330  0.44855765  0.02111137     0.15400
C353        C  0.13675953  0.17521302  0.87801693    -0.10700
C354        C  0.12788573  0.19262978  0.90539662    -0.12200
C355        C  0.17630682  0.21912267  0.82215554    -0.10800
C356        C  0.17658194  0.17970990  0.82012726     0.11400
C357        C  0.19879333  0.16345638  0.79204657    -0.10800
C358        C  0.22221514  0.18528693  0.76917359    -0.10800
C359        C  0.22438929  0.22453793  0.77335579     0.11400
C360        C  0.19899425  0.24097206  0.79860477    -0.10800
H361        H  0.15848988  0.23349567  0.84177956     0.15400
H362        H  0.19847304  0.13345125  0.78820005     0.15400
H363        H  0.23809931  0.17085876  0.74805485     0.15400
H364        H  0.19788302  0.27110710  0.80121873     0.15400
C365        C  0.09570109  0.37214337  0.69254815    -0.10700
C366        C  0.12267532  0.36252880  0.67493752    -0.12200
C367        C  0.07417951  0.38987431  0.87306456    -0.10700
C368        C  0.05654705  0.38040527  0.84589642    -0.12200
C369        C  0.44390440  0.37896322  0.65343501    -0.10700
C370        C  0.42536976  0.38796744  0.62642650    -0.12200
C371        C  0.45106790  0.41263181  0.54495821    -0.10800
C372        C  0.42550974  0.42876936  0.57004701     0.11400
C373        C  0.42376629  0.46823362  0.57089765    -0.10800
C374        C  0.44735764  0.49033636  0.54837915    -0.10800
C375        C  0.47386798  0.47420904  0.52405764     0.11400
C376        C  0.47368787  0.43472829  0.52154715    -0.10800
H377        H  0.45325085  0.38249003  0.54302500     0.15400
H378        H  0.40491590  0.48241896  0.58965339     0.15400
H379        H  0.44551456  0.02048361  0.55055033     0.15400
H380        H  0.49068973  0.42009403  0.50157922     0.15400
C381        C  0.40584082  0.37419412  0.80660209    -0.10700
C382        C  0.37845618  0.36457080  0.82381375    -0.12200
C383        C  0.32608288  0.32143938  0.77989871    -0.10800
C384        C  0.32365995  0.32132780  0.81963571     0.11400
C385        C  0.29845381  0.29612951  0.83662205    -0.10800
C386        C  0.27697330  0.27180975  0.81508841    -0.10800
C387        C  0.27734020  0.27363038  0.77524470     0.11400
C388        C  0.30348447  0.29806862  0.75828719    -0.10800
H389        H  0.34473440  0.34024392  0.76507769     0.15400
H390        H  0.29578175  0.29471083  0.86699801     0.15400
H391        H  0.26022303  0.25180731  0.83044609     0.15400
H392        H  0.30561308  0.29982145  0.72787573     0.15400
C393        C  0.38568619  0.37213332  0.57518703    -0.10700
C394        C  0.37690042  0.34453667  0.55810133    -0.12200
C395        C  0.37064925  0.30933002  0.90501227    -0.10700
C396        C  0.36240619  0.32701087  0.87699648    -0.12200
C397        C  0.36373354  0.17272034  0.62382069    -0.10700
C398        C  0.37217750  0.19052585  0.59598977    -0.12200
C399        C  0.32597807  0.17790422  0.72029992    -0.10800
C400        C  0.32406855  0.17822077  0.68053205     0.11400
C401        C  0.29922062  0.20372407  0.66332346    -0.10800
C402        C  0.27761729  0.22816633  0.68467050    -0.10800
C403        C  0.27747075  0.22619801  0.72450331     0.11400
C404        C  0.30323684  0.20141701  0.74171544    -0.10800
H405        H  0.34436190  0.15886387  0.73527374     0.15400
H406        H  0.29696537  0.20530902  0.63292859     0.15400
H407        H  0.26118689  0.24841419  0.66916721     0.15400
H408        H  0.30497121  0.19954402  0.77214161     0.15400
C409        C  0.19323445  0.40428052  0.62779667    -0.10700
C410        C  0.17557202  0.37699562  0.63697766    -0.12200
C411        C  0.34389008  0.44113694  0.62407471    -0.10700
C412        C  0.37078897  0.42375546  0.61387443    -0.12200
C413        C  0.15500482  0.05637524  0.62277029    -0.10700
C414        C  0.12780190  0.07378687  0.61305602    -0.12200
C415        C  0.32420431  0.12176768  0.64123221    -0.10700
C416        C  0.30635792  0.09473407  0.63226298    -0.12200
C417        C  0.32337033  0.37817005  0.85834087    -0.10700
C418        C  0.30533425  0.40529697  0.86693717    -0.12200
C419        C  0.12715422  0.42756663  0.88571243    -0.10700
C420        C  0.15401557  0.44507211  0.87541739    -0.12200
C421        C  0.17566576  0.12424831  0.86280214    -0.10700
C422        C  0.19331485  0.09690459  0.87201236    -0.12200
C423        C  0.38511162  0.12778256  0.92569255    -0.10700
C424        C  0.37640473  0.15535958  0.94292357    -0.12200
C425        C  0.34335361  0.05859019  0.87695197    -0.10700
C426        C  0.37013123  0.07597812  0.88726736    -0.12200
C427        C  0.45118050  0.08755246  0.95514579    -0.10800
C428        C  0.42523354  0.07124654  0.93064913     0.11400
C429        C  0.42344840  0.03178667  0.93023598    -0.10800
C430        C  0.44726188  0.00983404  0.95271757    -0.10800
C431        C  0.47389809  0.02610322  0.97671897     0.11400
C432        C  0.47398431  0.06562486  0.97861266    -0.10800
H433        H  0.45349717  0.11772675  0.95659803     0.15400
H434        H  0.40439730  0.01749053  0.91187641     0.15400
H435        H  0.44540007  0.47965725  0.95084287     0.15400
H436        H  0.49133319  0.08039836  0.99805674     0.15400
C437        C  0.37865694  0.13446926  0.67676634    -0.10700
C438        C  0.40590618  0.12453272  0.69401083    -0.12200
C439        C  0.12246501  0.13790270  0.82516038    -0.10700
C440        C  0.09538903  0.12779567  0.80811565    -0.12200
C441        C  0.07449362  0.11055259  0.62768011    -0.10700
C442        C  0.05698183  0.11936883  0.65520439    -0.12200
C443        C  0.42442930  0.11166040  0.87409081    -0.10700
C444        C  0.44294593  0.12031796  0.84698266    -0.12200
O445        O  0.04679138  0.59376575  0.27941508    -0.69200
O446        O  0.45508235  0.59216597  0.22461329    -0.69400
O447        O  0.02755211  0.59190571  0.20636513    -0.69300
O448        O  0.47425748  0.59228228  0.29773936    -0.69300
O449        O  0.47269596  0.65310368  0.29682016    -0.69200
O450        O  0.02751957  0.65273200  0.20424421    -0.69200
O451        O  0.45533300  0.65301464  0.22335690    -0.69200
O452        O  0.04498425  0.65458725  0.27769363    -0.69400
V453        V  0.00091540  0.59370001  0.25202441     1.35200
V454        V  0.50016211  0.65216968  0.25057706     1.35200
C455        C  0.06122380  0.62490199  0.28763755     0.80100
C456        C  0.43993641  0.62279366  0.21474877     0.80100
C457        C  0.03659806  0.62183084  0.18975345     0.80000
C458        C  0.46419892  0.62233127  0.31271526     0.79900
C459        C  0.40112186  0.59632628  0.40453823     0.00100
O460        O  0.20305889  0.97490075  0.34210966    -0.69200
O461        O  0.29472865  0.52946807  0.34281188    -0.69400
O462        O  0.27564907  0.95673710  0.34027256    -0.69300
O463        O  0.22232886  0.54738463  0.34272815    -0.69300
O464        O  0.22258460  0.54622857  0.40403533    -0.69200
O465        O  0.27610203  0.95350202  0.40151753    -0.69200
O466        O  0.29446926  0.52625605  0.40407091    -0.69200
O467        O  0.20412915  0.97360119  0.40340692    -0.69400
V468        V  0.24896512  0.00204543  0.34315318     1.35200
V469        V  0.24932912  0.49990374  0.40205752     1.36400
C470        C  0.18820072  0.96529056  0.37315259     0.80100
C471        C  0.30974511  0.53723345  0.37405606     0.80100
C472        C  0.28487918  0.93962422  0.37005009     0.80000
C473        C  0.21353473  0.56232187  0.37332943     0.79900
O474        O  0.27754391  0.54645514  0.09782910    -0.69200
O475        O  0.22333901  0.95434684  0.09548345    -0.69400
O476        O  0.20543692  0.52724935  0.09532388    -0.69300
O477        O  0.29541454  0.97345666  0.09610992    -0.69300
O478        O  0.29506254  0.97082387  0.15738746    -0.69200
O479        O  0.20372605  0.52629868  0.15660604    -0.69200
O480        O  0.22252811  0.95361778  0.15678581    -0.69200
O481        O  0.27633524  0.54373475  0.15908575    -0.69400
V482        V  0.25043570  0.50036689  0.09737872     1.35200
V483        V  0.24945166  0.99867610  0.15628801     1.35200
C484        C  0.28594588  0.56053575  0.12928437     0.80100
C485        C  0.21386320  0.93858813  0.12621348     0.80100
C486        C  0.18924617  0.53590805  0.12536779     0.80000
C487        C  0.31036882  0.96265877  0.12638292     0.79900
C488        C  0.34754058  0.65205678  0.15600715     0.00100
O489        O  0.34392991  0.70438948  0.47300205    -0.69200
O490        O  0.34406931  0.79555241  0.02848323    -0.69400
O491        O  0.34300028  0.77778929  0.45521588    -0.69300
O492        O  0.34366158  0.72218711  0.04629376    -0.69300
O493        O  0.40417939  0.72144430  0.04630542    -0.69200
O494        O  0.40350641  0.77847773  0.45434571    -0.69200
O495        O  0.40457522  0.79463700  0.02794637    -0.69200
O496        O  0.40443349  0.70526582  0.47269706    -0.69400
V497        V  0.34486934  0.74994606  0.50075138     1.35200
V498        V  0.40294106  0.74998361  0.00032307     1.35200
C499        C  0.37452207  0.68953498  0.46358146     0.80100
C500        C  0.37474271  0.81039396  0.03745754     0.80100
C501        C  0.37279682  0.78774162  0.43938493     0.80000
C502        C  0.37370087  0.71221420  0.06168739     0.79900
C503        C  0.34700158  0.84764771  0.34437148     0.00100
C504        C  0.40185205  0.90351894  0.09618492     0.00100
O505        O  0.04682366  0.90592268  0.22134567    -0.69200
O506        O  0.45501215  0.90688160  0.27613684    -0.69400
O507        O  0.02740760  0.90765265  0.29439333    -0.69300
O508        O  0.47436005  0.90697916  0.20300649    -0.69300
O509        O  0.47390042  0.84614496  0.20353055    -0.69200
O510        O  0.02753131  0.84683195  0.29684741    -0.69200
O511        O  0.45557108  0.84604052  0.27686154    -0.69200
O512        O  0.04597782  0.84510013  0.22355203    -0.69400
V513        V  0.00090971  0.90567708  0.24873458     1.35200
V514        V  0.50076398  0.84720834  0.25015289     1.35200
C515        C  0.06174253  0.87490075  0.21331288     0.80100
C516        C  0.43998779  0.87616138  0.28573914     0.80100
C517        C  0.03636309  0.87781603  0.31124762     0.80000
C518        C  0.46500415  0.87690183  0.18774493     0.79900
C519        C  0.15303374  0.65467536  0.34634308     0.00100
C520        C  0.09703778  0.90565499  0.40336295     0.00100
C521        C  0.15331639  0.84635945  0.15312494     0.00100
C522        C  0.09694113  0.59548689  0.09659421     0.00100
O523        O  0.15490472  0.70459583  0.02812246    -0.69200
O524        O  0.15577186  0.79624539  0.47128439    -0.69400
O525        O  0.15613066  0.77766084  0.04472228    -0.69300
O526        O  0.15597601  0.72317001  0.45470060    -0.69300
O527        O  0.09544132  0.72296327  0.45407095    -0.69200
O528        O  0.09560681  0.77904730  0.04495931    -0.69200
O529        O  0.09524668  0.79582179  0.47123546    -0.69200
O530        O  0.09439749  0.70615341  0.02785267    -0.69400
V531        V  0.15454791  0.75049166  0.99969404     1.35200
V532        V  0.09636440  0.75090048  0.49954422     1.35200
C533        C  0.12410844  0.69000238  0.03747520     0.80100
C534        C  0.12523687  0.81142879  0.46182026     0.80100
C535        C  0.12624887  0.78775538  0.06001950     0.80000
C536        C  0.12603972  0.71367767  0.43920371     0.79900
C537        C  0.50027367  0.00020443  0.50038060     0.00100
C538        C  0.25108627  0.75016672  0.24976321     0.00100
C539        C  0.12171528  0.65561858  0.05859153    -0.10700
C540        C  0.11272505  0.62771665  0.07579482    -0.12200
C541        C  0.07476382  0.57166106  0.03180123    -0.10800
C542        C  0.07330009  0.56989064  0.07154183     0.11400
C543        C  0.05035167  0.54228439  0.08807583    -0.10800
C544        C  0.02754794  0.51951360  0.06605359    -0.10800
C545        C  0.02670638  0.52329812  0.02630554     0.11400
C546        C  0.05257295  0.54832676  0.00979469    -0.10800
H547        H  0.09322429  0.59090652  0.01732286     0.15400
H548        H  0.04970863  0.53860126  0.11841220     0.15400
H549        H  0.51100415  0.49883635  0.08078667     0.15400
H550        H  0.05448094  0.55089728  0.97940990     0.15400
C551        C  0.12821142  0.80889696  0.09384597    -0.10700
C552        C  0.13706403  0.82612085  0.12134778    -0.12200
C553        C  0.17710321  0.78175917  0.17665358    -0.10800
C554        C  0.17724349  0.82114927  0.17897656     0.11400
C555        C  0.19942687  0.83719560  0.20715131    -0.10800
C556        C  0.22271710  0.81517834  0.23006375    -0.10800
C557        C  0.22479506  0.77592223  0.22583308     0.11400
C558        C  0.19965569  0.75971961  0.20023986    -0.10800
H559        H  0.15939006  0.76754912  0.15688490     0.15400
H560        H  0.19906108  0.86718682  0.21116309     0.15400
H561        H  0.23848102  0.82945171  0.25132160     0.15400
H562        H  0.19855175  0.72959226  0.19748545     0.15400
C563        C  0.11397862  0.87383821  0.42389927    -0.10700
C564        C  0.12335380  0.84591473  0.44087341    -0.12200
C565        C  0.07441901  0.92838709  0.46853902    -0.10800
C566        C  0.07356362  0.93111144  0.42880622     0.11400
C567        C  0.05105132  0.95932152  0.41257854    -0.10800
C568        C  0.02811794  0.98185105  0.43479030    -0.10800
C569        C  0.02670779  0.97720260  0.47444372     0.11400
C570        C  0.05219907  0.95158667  0.49076879    -0.10800
H571        H  0.09238860  0.90850339  0.48285562     0.15400
H572        H  0.05082311  0.96361695  0.38229923     0.15400
H573        H  0.51192283  0.00303818  0.42031154     0.15400
H574        H  0.05370599  0.94840362  0.52113106     0.15400
C575        C  0.13678099  0.67514975  0.37798501    -0.10700
C576        C  0.12790599  0.69252343  0.40539362    -0.12200
C577        C  0.17638624  0.71915660  0.32223938    -0.10800
C578        C  0.17658987  0.67975027  0.32008735     0.11400
C579        C  0.19872283  0.66354779  0.29191430    -0.10800
C580        C  0.22213542  0.68540987  0.26906215    -0.10800
C581        C  0.22438897  0.72464136  0.27336779     0.11400
C582        C  0.19906472  0.74104065  0.29871010    -0.10800
H583        H  0.15863213  0.73349928  0.34194345     0.15400
H584        H  0.19834295  0.63355638  0.28797361     0.15400
H585        H  0.23794563  0.67102623  0.24785579     0.15400
H586        H  0.19800546  0.77116842  0.30141367     0.15400
C587        C  0.09577411  0.87224644  0.19254514    -0.10700
C588        C  0.12273793  0.86264654  0.17491327    -0.12200
C589        C  0.07414513  0.88983170  0.37313565    -0.10700
C590        C  0.05654374  0.88039104  0.34593859    -0.12200
C591        C  0.44396463  0.87894810  0.15344186    -0.10700
C592        C  0.42539974  0.88793344  0.12644841    -0.12200
C593        C  0.45130903  0.91259841  0.04520342    -0.10800
C594        C  0.42557319  0.92875158  0.07009441     0.11400
C595        C  0.42368576  0.96821452  0.07076657    -0.10800
C596        C  0.44732393  0.99030590  0.04828952    -0.10800
C597        C  0.47399040  0.97417470  0.02414192     0.11400
C598        C  0.47396803  0.93467694  0.02181018    -0.10800
H599        H  0.45359861  0.88245088  0.04341413     0.15400
H600        H  0.40468760  0.98241714  0.08935346     0.15400
H601        H  0.44536026  0.52045714  0.05033325     0.15400
H602        H  0.49111857  0.92000892  0.00200486     0.15400
C603        C  0.40592017  0.87415022  0.30661045    -0.10700
C604        C  0.37854192  0.86455626  0.32384948    -0.12200
C605        C  0.32600443  0.82162782  0.27994431    -0.10800
C606        C  0.32371350  0.82136831  0.31968993     0.11400
C607        C  0.29859139  0.79607936  0.33667140    -0.10800
C608        C  0.27707880  0.77180138  0.31512152    -0.10800
C609        C  0.27733573  0.77374768  0.27528254     0.11400
C610        C  0.30338931  0.79828336  0.25832538    -0.10800
H611        H  0.34457051  0.84052206  0.26512867     0.15400
H612        H  0.29600697  0.79455670  0.36705196     0.15400
H613        H  0.26040246  0.75172076  0.33045650     0.15400
H614        H  0.30543155  0.80013187  0.22791201     0.15400
C615        C  0.38569070  0.87215938  0.07518778    -0.10700
C616        C  0.37684884  0.84458770  0.05808619    -0.12200
C617        C  0.37075523  0.80931153  0.40504304    -0.10700
C618        C  0.36250561  0.82700134  0.37703544    -0.12200
C619        C  0.36368005  0.67280789  0.12381505    -0.10700
C620        C  0.37211878  0.69059639  0.09597538    -0.12200
C621        C  0.32587298  0.67793698  0.22032429    -0.10800
C622        C  0.32405498  0.67836857  0.18055216     0.11400
C623        C  0.29933200  0.70400364  0.16335263    -0.10800
C624        C  0.27775129  0.72844884  0.18471648    -0.10800
C625        C  0.27749118  0.72635133  0.22454198     0.11400
C626        C  0.30316072  0.70146708  0.24175032    -0.10800
H627        H  0.34415923  0.65879205  0.23528613     0.15400
H628        H  0.29714931  0.70568560  0.13295673     0.15400
H629        H  0.26142414  0.74879986  0.16923791     0.15400
H630        H  0.30481952  0.69950926  0.27217638     0.15400
C631        C  0.19331897  0.90432915  0.12774717    -0.10700
C632        C  0.17564438  0.87706032  0.13694540    -0.12200
C633        C  0.34395091  0.94115890  0.12413359    -0.10700
C634        C  0.37084094  0.92376383  0.11392806    -0.12200
C635        C  0.15509294  0.55647913  0.12271393    -0.10700
C636        C  0.12789407  0.57390889  0.11301324    -0.12200
C637        C  0.32414756  0.62188927  0.14128261    -0.10700
C638        C  0.30633973  0.59483102  0.13231755    -0.12200
C639        C  0.32347441  0.87817830  0.35842452    -0.10700
C640        C  0.30540706  0.90528243  0.36702641    -0.12200
C641        C  0.12713876  0.92746386  0.38581398    -0.10700
C642        C  0.15400440  0.94494834  0.37549324    -0.12200
C643        C  0.17566885  0.62420300  0.36265760    -0.10700
C644        C  0.19328167  0.59683102  0.37185702    -0.12200
C645        C  0.38507385  0.62781129  0.42555808    -0.10700
C646        C  0.37643200  0.65537968  0.44283525    -0.12200
C647        C  0.34328339  0.55858761  0.37684457    -0.10700
C648        C  0.37005740  0.57598825  0.38715478    -0.12200
C649        C  0.45095494  0.58755615  0.45520003    -0.10800
C650        C  0.42515697  0.57125269  0.43053912     0.11400
C651        C  0.42350553  0.53179090  0.42997820    -0.10800
C652        C  0.44729257  0.50983884  0.45249284    -0.10800
C653        C  0.47379089  0.52611235  0.47664586     0.11400
C654        C  0.47372870  0.56562288  0.47868954    -0.10800
H655        H  0.45317526  0.61773102  0.45677208     0.15400
H656        H  0.40457945  0.51750175  0.41148080     0.15400
H657        H  0.44553483  0.97965980  0.45051946     0.15400
H658        H  0.49093317  0.58037850  0.49828059     0.15400
C659        C  0.37861841  0.63459805  0.17676368    -0.10700
C660        C  0.40588541  0.62465097  0.19396739    -0.12200
C661        C  0.12246589  0.63794402  0.32506232    -0.10700
C662        C  0.09538652  0.62785384  0.30801484    -0.12200
C663        C  0.07458692  0.61069200  0.12765264    -0.10700
C664        C  0.05705280  0.61953120  0.15515384    -0.12200
C665        C  0.42438086  0.61164588  0.37396484    -0.10700
C666        C  0.44290793  0.62030974  0.34686531    -0.12200
O667        O  0.04678346  0.59369705  0.77955189    -0.69200
O668        O  0.45509321  0.59206721  0.72471181    -0.69400
O669        O  0.02756627  0.59178181  0.70648987    -0.69300
O670        O  0.47424496  0.59224352  0.79785115    -0.69300
O671        O  0.47273944  0.65306618  0.79690866    -0.69200
O672        O  0.02749237  0.65260634  0.70429355    -0.69200
O673        O  0.45532366  0.65291545  0.72345296    -0.69200
O674        O  0.04501421  0.65451783  0.77773322    -0.69400
V675        V  0.00091677  0.59361720  0.75214251     1.35200
V676        V  0.50017169  0.65208644  0.75064725     1.35200
C677        C  0.06123426  0.62483733  0.78772853     0.80100
C678        C  0.43994226  0.62268897  0.71483370     0.80100
C679        C  0.03657575  0.62169375  0.68983082     0.80000
C680        C  0.46422168  0.62230826  0.81281989     0.79900
C681        C  0.40118305  0.59632092  0.90466140     0.00100
O682        O  0.20307791  0.97506874  0.84209090    -0.69200
O683        O  0.29479480  0.52953908  0.84288359    -0.69400
O684        O  0.27564618  0.95683281  0.84024282    -0.69300
O685        O  0.22241389  0.54752606  0.84282235    -0.69300
O686        O  0.22263311  0.54626550  0.90412931    -0.69200
O687        O  0.27610733  0.95352645  0.90148495    -0.69200
O688        O  0.29451465  0.52626529  0.90414049    -0.69200
O689        O  0.20414837  0.97365564  0.90338740    -0.69400
V690        V  0.24900734  0.00216540  0.84318419     1.35200
V691        V  0.24936096  0.49993629  0.90208378     1.36400
C692        C  0.18821504  0.96541031  0.87311578     0.80100
C693        C  0.30980648  0.53726129  0.87413983     0.80100
C694        C  0.28485875  0.93967290  0.86999980     0.80000
C695        C  0.21359872  0.56240840  0.87344551     0.79900
O696        O  0.27750267  0.54637171  0.59779492    -0.69200
O697        O  0.22320706  0.95430963  0.59550901    -0.69400
O698        O  0.20537047  0.52722393  0.59534944    -0.69300
O699        O  0.29529983  0.97336132  0.59607444    -0.69300
O700        O  0.29503455  0.97081404  0.65735521    -0.69200
O701        O  0.20365898  0.52621597  0.65663185    -0.69200
O702        O  0.22250908  0.95354974  0.65681245    -0.69200
O703        O  0.27626416  0.54370805  0.65905228    -0.69400
V704        V  0.25034702  0.50030772  0.59737597     1.35200
V705        V  0.24940445  0.99863000  0.65628325     1.35200
C706        C  0.28590938  0.56047156  0.62924063     0.80100
C707        C  0.21378335  0.93853612  0.62624838     0.80100
C708        C  0.18917454  0.53584271  0.62540178     0.80000
C709        C  0.31029990  0.96261287  0.62634079     0.79900
C710        C  0.34759278  0.65193283  0.65598864     0.00100
O711        O  0.34385881  0.70439891  0.97302298    -0.69200
O712        O  0.34415254  0.79549229  0.52851663    -0.69400
O713        O  0.34290179  0.77779830  0.95518689    -0.69300
O714        O  0.34373822  0.72212192  0.54629303    -0.69300
O715        O  0.40425562  0.72139515  0.54632917    -0.69200
O716        O  0.40340738  0.77852795  0.95432575    -0.69200
O717        O  0.40465897  0.79459324  0.52796563    -0.69200
O718        O  0.40436144  0.70531813  0.97268677    -0.69400
V719        V  0.34478489  0.74998368  0.00073925     1.35200
V720        V  0.40302574  0.74993375  0.50034269     1.35200
C721        C  0.37445970  0.68955260  0.96360909     0.80100
C722        C  0.37482139  0.81034196  0.53748168     0.80100
C723        C  0.37269364  0.78776766  0.93935803     0.80000
C724        C  0.37377385  0.71215567  0.56170059     0.79900
C725        C  0.34691323  0.84764570  0.84431578     0.00100
C726        C  0.40182179  0.90352493  0.59615483     0.00100
O727        O  0.04676912  0.90586301  0.72133239    -0.69200
O728        O  0.45495639  0.90690578  0.77613339    -0.69400
O729        O  0.02736146  0.90764354  0.79437800    -0.69300
O730        O  0.47430343  0.90697209  0.70300420    -0.69300
O731        O  0.47378565  0.84613844  0.70355356    -0.69200
O732        O  0.02746645  0.84682367  0.79685051    -0.69200
O733        O  0.45549205  0.84606455  0.77689388    -0.69200
O734        O  0.04586999  0.84504187  0.72354737    -0.69400
V735        V  0.00085482  0.90566406  0.74872731     1.35200
V736        V  0.50067150  0.84719599  0.75016697     1.35200
C737        C  0.06166200  0.87482552  0.71330448     0.80100
C738        C  0.43991897  0.87619537  0.78575111     0.80100
C739        C  0.03632344  0.87781049  0.81123315     0.80000
C740        C  0.46492222  0.87689908  0.68775318     0.79900
C741        C  0.15302932  0.65467647  0.84642173     0.00100
C742        C  0.09708536  0.90572397  0.90327353     0.00100
C743        C  0.15326939  0.84626111  0.65314707     0.00100
C744        C  0.09687020  0.59538595  0.59661853     0.00100
O745        O  0.15492360  0.70447790  0.52816246    -0.69200
O746        O  0.15581201  0.79637334  0.97127781    -0.69400
O747        O  0.15612210  0.77755024  0.54473202    -0.69300
O748        O  0.15597584  0.72331024  0.95467342    -0.69300
O749        O  0.09544071  0.72310174  0.95405446    -0.69200
O750        O  0.09559743  0.77887527  0.54500244    -0.69200
O751        O  0.09528625  0.79596540  0.97118363    -0.69200
O752        O  0.09441552  0.70599177  0.52786659    -0.69400
V753        V  0.15454104  0.75036555  0.49971348     1.35200
V754        V  0.09637121  0.75105543  0.99951398     1.35200
C755        C  0.12413260  0.68986909  0.53751283     0.80100
C756        C  0.12528880  0.81155708  0.96178091     0.80100
C757        C  0.12623909  0.78761669  0.56004520     0.80000
C758        C  0.12603649  0.71381241  0.93918589     0.79900
C759        C  0.50037682  0.00018203  0.00044608     0.00100
C760        C  0.25109275  0.75004104  0.74972674     0.00100
C761        C  0.12174163  0.65550444  0.55865978    -0.10700
C762        C  0.11270476  0.62761983  0.57586599    -0.12200
C763        C  0.07451438  0.57180963  0.53178041    -0.10800
C764        C  0.07323677  0.56982362  0.57152201     0.11400
C765        C  0.05045188  0.54205669  0.58801528    -0.10800
C766        C  0.02763136  0.51932083  0.56597317    -0.10800
C767        C  0.02660709  0.52330641  0.52624719     0.11400
C768        C  0.05232838  0.54849321  0.50975040    -0.10800
H769        H  0.09283037  0.59120372  0.51731196     0.15400
H770        H  0.04995265  0.53822204  0.61833587     0.15400
H771        H  0.51123158  0.49849377  0.58066515     0.15400
H772        H  0.05411193  0.55120645  0.47936969     0.15400
C773        C  0.12819968  0.80876971  0.59386678    -0.10700
C774        C  0.13703945  0.82601163  0.62136265    -0.12200
C775        C  0.17697212  0.78165684  0.67675517    -0.10800
C776        C  0.17721740  0.82105356  0.67898563     0.11400
C777        C  0.19952740  0.83710610  0.70705327    -0.10800
C778        C  0.22284422  0.81508326  0.72993182    -0.10800
C779        C  0.22481167  0.77580922  0.72579061     0.11400
C780        C  0.19955563  0.75961278  0.70030905    -0.10800
H781        H  0.15914977  0.76744827  0.65708533     0.15400
H782        H  0.19924632  0.86710715  0.71100420     0.15400
H783        H  0.23871166  0.82937442  0.75109649     0.15400
H784        H  0.19836737  0.72948076  0.69762721     0.15400
C785        C  0.11406517  0.87392751  0.92380031    -0.10700
C786        C  0.12343515  0.84602139  0.94080190    -0.12200
C787        C  0.07462208  0.92850805  0.96848475    -0.10800
C788        C  0.07361683  0.93115029  0.92874974     0.11400
C789        C  0.05097115  0.95926291  0.91255030    -0.10800
C790        C  0.02804676  0.98175975  0.93480006    -0.10800
C791        C  0.02678297  0.97718564  0.97446888     0.11400
C792        C  0.05240449  0.95167628  0.99075152    -0.10800
H793        H  0.09271304  0.90871385  0.98277462     0.15400
H794        H  0.05062886  0.96350556  0.88226664     0.15400
H795        H  0.51174183  0.00286631  0.92032688     0.15400
H796        H  0.05402810  0.94855906  0.02111181     0.15400
C797        C  0.13676779  0.67521334  0.87801577    -0.10700
C798        C  0.12789543  0.69263261  0.90539422    -0.12200
C799        C  0.17629431  0.71911789  0.82213565    -0.10800
C800        C  0.17659069  0.67970403  0.82012757     0.11400
C801        C  0.19882195  0.66344785  0.79206454    -0.10800
C802        C  0.22224332  0.68527904  0.76919176    -0.10800
C803        C  0.22439625  0.72453370  0.77335532     0.11400
C804        C  0.19898226  0.74096726  0.79858548    -0.10800
H805        H  0.15845972  0.73349121  0.84174281     0.15400
H806        H  0.19851778  0.63344068  0.78823178     0.15400
H807        H  0.23814385  0.67084728  0.74808846     0.15400
H808        H  0.19785509  0.77110335  0.80118487     0.15400
C809        C  0.09570156  0.87213312  0.69255057    -0.10700
C810        C  0.12267605  0.86252051  0.67493911    -0.12200
C811        C  0.07418071  0.88986991  0.87306682    -0.10700
C812        C  0.05654800  0.88039902  0.84589943    -0.12200
C813        C  0.44390583  0.87896148  0.65343677    -0.10700
C814        C  0.42537234  0.88796678  0.62642766    -0.12200
C815        C  0.45107135  0.91263219  0.54495896    -0.10800
C816        C  0.42551392  0.92876999  0.57004848     0.11400
C817        C  0.42377100  0.96823422  0.57089934    -0.10800
C818        C  0.44736171  0.99033673  0.54837991    -0.10800
C819        C  0.47387090  0.97420914  0.52405724     0.11400
C820        C  0.47369071  0.93472846  0.52154708    -0.10800
H821        H  0.45325394  0.88249047  0.54302568     0.15400
H822        H  0.40492126  0.98241965  0.58965575     0.15400
H823        H  0.44551001  0.52048329  0.55054942     0.15400
H824        H  0.49069232  0.92009402  0.50157855     0.15400
C825        C  0.40584134  0.87419732  0.80660547    -0.10700
C826        C  0.37845549  0.86457616  0.82381646    -0.12200
C827        C  0.32610307  0.82142182  0.77990073    -0.10800
C828        C  0.32365686  0.82133506  0.81963599     0.11400
C829        C  0.29842844  0.79615991  0.83662215    -0.10800
C830        C  0.27695002  0.77183644  0.81509072    -0.10800
C831        C  0.27734154  0.77363185  0.77524619     0.11400
C832        C  0.30350402  0.79805119  0.75828972    -0.10800
H833        H  0.34477330  0.84020700  0.76507933     0.15400
H834        H  0.29573902  0.79476123  0.86699722     0.15400
H835        H  0.26018177  0.75185251  0.83045171     0.15400
H836        H  0.30564946  0.79978704  0.72787912     0.15400
C837        C  0.38568886  0.87213535  0.57518674    -0.10700
C838        C  0.37690220  0.84453997  0.55809949    -0.12200
C839        C  0.37064362  0.80933035  0.90501114    -0.10700
C840        C  0.36240142  0.82701253  0.87699597    -0.12200
C841        C  0.36373922  0.67272450  0.62382053    -0.10700
C842        C  0.37218271  0.69053166  0.59599055    -0.12200
C843        C  0.32600104  0.67792054  0.72029767    -0.10800
C844        C  0.32407433  0.67821961  0.68053061     0.11400
C845        C  0.29921055  0.70370678  0.66332231    -0.10800
C846        C  0.27760713  0.72814952  0.68466830    -0.10800
C847        C  0.27747661  0.72619705  0.72450194     0.11400
C848        C  0.30325849  0.70143212  0.74171316    -0.10800
H849        H  0.34439919  0.65889454  0.73527175     0.15400
H850        H  0.29694363  0.70527883  0.63292766     0.15400
H851        H  0.26116325  0.74838468  0.66916237     0.15400
H852        H  0.30500531  0.69957124  0.77213943     0.15400
C853        C  0.19323292  0.90427685  0.62779623    -0.10700
C854        C  0.17557007  0.87699213  0.63697645    -0.12200
C855        C  0.34389250  0.94113607  0.62407626    -0.10700
C856        C  0.37079235  0.92375630  0.61387545    -0.12200
C857        C  0.15500513  0.55638017  0.62276303    -0.10700
C858        C  0.12780124  0.57379097  0.61305021    -0.12200
C859        C  0.32421053  0.62176916  0.64122618    -0.10700
C860        C  0.30636262  0.59473708  0.63225491    -0.12200
C861        C  0.32336938  0.87817572  0.85834329    -0.10700
C862        C  0.30533204  0.90530165  0.86693994    -0.12200
C863        C  0.12715271  0.92756800  0.88570983    -0.10700
C864        C  0.15401238  0.94507554  0.87541386    -0.12200
C865        C  0.17566830  0.62424344  0.86280611    -0.10700
C866        C  0.19331619  0.59689936  0.87201793    -0.12200
C867        C  0.38511204  0.62778580  0.92569208    -0.10700
C868        C  0.37640522  0.65536211  0.94292453    -0.12200
C869        C  0.34335432  0.55859156  0.87695168    -0.10700
C870        C  0.37013107  0.57598144  0.88726626    -0.12200
C871        C  0.45117913  0.58755404  0.95514585    -0.10800
C872        C  0.42523301  0.57124895  0.93064777     0.11400
C873        C  0.42344799  0.53178905  0.93023314    -0.10800
C874        C  0.44726065  0.50983563  0.95271484    -0.10800
C875        C  0.47389603  0.52610407  0.97671760     0.11400
C876        C  0.47398207  0.56562564  0.97861276    -0.10800
H877        H  0.45349576  0.61772824  0.95659926     0.15400
H878        H  0.40439768  0.51749346  0.91187237     0.15400
H879        H  0.44540117  0.97965545  0.95084667     0.15400
H880        H  0.49133023  0.58039851  0.99805807     0.15400
C881        C  0.37866271  0.63446812  0.67676260    -0.10700
C882        C  0.40591181  0.62453287  0.69400791    -0.12200
C883        C  0.12247068  0.63790215  0.82515992    -0.10700
C884        C  0.09539351  0.62779863  0.80811487    -0.12200
C885        C  0.07449441  0.61055767  0.62767738    -0.10700
C886        C  0.05698431  0.61937392  0.65520281    -0.12200
C887        C  0.42443007  0.61166319  0.87408958    -0.10700
C888        C  0.44294776  0.62032000  0.84698174    -0.12200
O889        O  0.54678875  0.09376488  0.27941744    -0.69200
O890        O  0.95507963  0.09216831  0.22461455    -0.69400
O891        O  0.52755028  0.09190562  0.20636717    -0.69300
O892        O  0.97425454  0.09228280  0.29774053    -0.69300
O893        O  0.97269373  0.15310423  0.29682163    -0.69200
O894        O  0.52752027  0.15273191  0.20424712    -0.69200
O895        O  0.95533281  0.15301695  0.22335804    -0.69200
O896        O  0.54498228  0.15458642  0.27769704    -0.69400
V897        V  0.50091299  0.09370041  0.25202597     1.35200
V898        V  0.00016109  0.15217014  0.25057921     1.35200
C899        C  0.56122118  0.12490093  0.28764090     0.80100
C900        C  0.93993466  0.12279673  0.21475038     0.80100
C901        C  0.53659802  0.12183054  0.18975622     0.80000
C902        C  0.96419618  0.12233177  0.31271641     0.79900
C903        C  0.90112015  0.09632404  0.40453879     0.00100
O904        O  0.70306101  0.47489886  0.34211682    -0.69200
O905        O  0.79472811  0.02946720  0.34280916    -0.69400
O906        O  0.77565152  0.45673729  0.34027502    -0.69300
O907        O  0.72232885  0.04738641  0.34272126    -0.69300
O908        O  0.72258154  0.04623078  0.40402846    -0.69200
O909        O  0.77610783  0.45350116  0.40151991    -0.69200
O910        O  0.79446535  0.02625603  0.40406822    -0.69200
O911        O  0.70413455  0.47359837  0.40341400    -0.69400
V912        V  0.74896653  0.50204481  0.34315801     1.35200
V913        V  0.74932455  0.99990519  0.40205266     1.36400
C914        C  0.68820460  0.46528796  0.37316041     0.80100
C915        C  0.80974324  0.03723234  0.37405407     0.80100
C916        C  0.78488312  0.43962377  0.37005170     0.80000
C917        C  0.71353402  0.06232433  0.37332205     0.79900
O918        O  0.77754397  0.04645195  0.09784018    -0.69200
O919        O  0.72333802  0.45434985  0.09547892    -0.69400
O920        O  0.70543771  0.02724586  0.09533167    -0.69300
O921        O  0.79541346  0.47345932  0.09610214    -0.69300
O922        O  0.79506261  0.47082940  0.15737980    -0.69200
O923        O  0.70372459  0.02629191  0.15661374    -0.69200
O924        O  0.72252844  0.45362445  0.15678127    -0.69200
O925        O  0.77633348  0.04372899  0.15909672    -0.69400
V926        V  0.75043651  0.00036362  0.09738658     1.35200
V927        V  0.74945252  0.49868238  0.15628012     1.35200
C928        C  0.78594428  0.06053163  0.12929627     0.80100
C929        C  0.71386329  0.43859266  0.12621015     0.80100
C930        C  0.68924595  0.03590324  0.12537538     0.80000
C931        C  0.81036778  0.46266211  0.12637540     0.79900
C932        C  0.84753531  0.15205847  0.15601087     0.00100
O933        O  0.84392832  0.20438798  0.47300095    -0.69200
O934        O  0.84406883  0.29554947  0.02848184    -0.69400
O935        O  0.84300106  0.27778844  0.45521651    -0.69300
O936        O  0.84365829  0.22218364  0.04629128    -0.69300
O937        O  0.90417606  0.22143782  0.04630495    -0.69200
O938        O  0.90350722  0.27847676  0.45434918    -0.69200
O939        O  0.90457475  0.29463152  0.02794947    -0.69200
O940        O  0.90443192  0.20526368  0.47269667    -0.69400
V941        V  0.84486794  0.24994381  0.50075135     1.35200
V942        V  0.90294073  0.24997949  0.00032397     1.35200
C943        C  0.87452040  0.18953327  0.46358057     0.80100
C944        C  0.87474218  0.31038973  0.03745841     0.80100
C945        C  0.87279836  0.28774157  0.43938746     0.80000
C946        C  0.87369661  0.21220859  0.06168554     0.79900
C947        C  0.84700329  0.34764525  0.34437264     0.00100
C948        C  0.90184948  0.40351796  0.09618187     0.00100
O949        O  0.54682111  0.40593029  0.22134155    -0.69200
O950        O  0.95501035  0.40688377  0.27613516    -0.69400
O951        O  0.52740669  0.40765920  0.29439004    -0.69300
O952        O  0.97435683  0.40698294  0.20300430    -0.69300
O953        O  0.97390043  0.34614872  0.20352816    -0.69200
O954        O  0.52753350  0.34683850  0.29684371    -0.69200
O955        O  0.95557289  0.34604273  0.27685949    -0.69200
O956        O  0.54597810  0.34510770  0.22354794    -0.69400
V957        V  0.50090768  0.40568229  0.24873185     1.35200
V958        V  0.00076500  0.34721336  0.25014985     1.35200
C959        C  0.56174116  0.37490896  0.21330831     0.80100
C960        C  0.93998786  0.37616250  0.28573746     0.80100
C961        C  0.53636404  0.37782292  0.31124398     0.80000
C962        C  0.96500223  0.37690516  0.18774284     0.79900
C963        C  0.65303021  0.15467913  0.34634446     0.00100
C964        C  0.59703624  0.40565492  0.40336496     0.00100
C965        C  0.65331541  0.34636414  0.15312323     0.00100
C966        C  0.59694331  0.09548530  0.09659843     0.00100
O967        O  0.65490127  0.20459603  0.02812433    -0.69200
O968        O  0.65576332  0.29624291  0.47128696    -0.69400
O969        O  0.65612692  0.27766207  0.04472108    -0.69300
O970        O  0.65597010  0.22316690  0.45470662    -0.69300
O971        O  0.59543543  0.22295781  0.45407827    -0.69200
O972        O  0.59560307  0.27904742  0.04496158    -0.69200
O973        O  0.59523816  0.29581730  0.47123990    -0.69200
O974        O  0.59439401  0.20615229  0.02785781    -0.69400
V975        V  0.65454206  0.25049074  0.99969418     1.35200
V976        V  0.59635853  0.25089696  0.49955058     1.35200
C977        C  0.62410586  0.19000206  0.03747915     0.80100
C978        C  0.62522762  0.31142497  0.46182313     0.80100
C979        C  0.62624585  0.28775726  0.06001930     0.80000
C980        C  0.62603394  0.21367310  0.43921050     0.79900
C981        C  0.00027124  0.50020448  0.50038151     0.00100
C982        C  0.75108158  0.25017073  0.24976462     0.00100
C983        C  0.62171500  0.15561829  0.05859611    -0.10700
C984        C  0.61272707  0.12771562  0.07579958    -0.12200
C985        C  0.57476611  0.07166102  0.03180439    -0.10800
C986        C  0.57330266  0.06988945  0.07154505     0.11400
C987        C  0.55035452  0.04228255  0.08807816    -0.10800
C988        C  0.52755083  0.01951236  0.06605529    -0.10800
C989        C  0.52670888  0.02329799  0.02630726     0.11400
C990        C  0.55257532  0.04832719  0.00979710    -0.10800
H991        H  0.59322654  0.09090721  0.01732641     0.15400
H992        H  0.54971163  0.03859845  0.11841459     0.15400
H993        H  0.01100752  0.99883433  0.08078796     0.15400
H994        H  0.55448330  0.05089839  0.97941231     0.15400
C995        C  0.62820997  0.30890160  0.09384406    -0.10700
C996        C  0.63706329  0.32612658  0.12134506    -0.12200
C997        C  0.67711354  0.28176324  0.17664022    -0.10800
C998        C  0.67723971  0.32115260  0.17897665     0.11400
C999        C  0.69940761  0.33719665  0.20716523    -0.10800
C1000       C  0.72269588  0.31517919  0.23008000    -0.10800
C1001       C  0.72478933  0.27592564  0.22583544     0.11400
C1002       C  0.69966418  0.25972340  0.20022802    -0.10800
H1003       H  0.65941371  0.26755367  0.15685954     0.15400
H1004       H  0.69903059  0.36718675  0.21118658     0.15400
H1005       H  0.73844589  0.32944913  0.25135057     0.15400
H1006       H  0.69857114  0.22959639  0.19746300     0.15400
C1007       C  0.61397155  0.37383481  0.42390084    -0.10700
C1008       C  0.62334358  0.34591036  0.44087523    -0.12200
C1009       C  0.57441649  0.42838664  0.46854075    -0.10800
C1010       C  0.57356197  0.43111153  0.42880797     0.11400
C1011       C  0.55105088  0.45932256  0.41258028    -0.10800
C1012       C  0.52811695  0.48185167  0.43479181    -0.10800
C1013       C  0.52670559  0.47720236  0.47444508     0.11400
C1014       C  0.55219645  0.45158616  0.49077044    -0.10800
H1015       H  0.59238582  0.40850241  0.48285755     0.15400
H1016       H  0.55082377  0.46361891  0.38230093     0.15400
H1017       H  0.01192329  0.50303993  0.42031315     0.15400
H1018       H  0.55370279  0.44840288  0.52113255     0.15400
C1019       C  0.63677742  0.17514902  0.37798958    -0.10700
C1020       C  0.62790086  0.19251951  0.40539988    -0.12200
C1021       C  0.67640061  0.21916224  0.32226123    -0.10800
C1022       C  0.67658317  0.17975714  0.32008849     0.11400
C1023       C  0.69869502  0.16355805  0.29189646    -0.10800
C1024       C  0.72210711  0.18542009  0.26904366    -0.10800
C1025       C  0.72438248  0.22464763  0.27336888     0.11400
C1026       C  0.69907766  0.24104680  0.29873079    -0.10800
H1027       H  0.65866485  0.23350393  0.34198288     0.15400
H1028       H  0.69829876  0.13356918  0.28794134     0.15400
H1029       H  0.73790000  0.17104057  0.24782054     0.15400
H1030       H  0.69803428  0.27117368  0.30144945     0.15400
C1031       C  0.59577244  0.37225541  0.19253995    -0.10700
C1032       C  0.62273622  0.36265349  0.17490908    -0.12200
C1033       C  0.57414523  0.38983631  0.37313373    -0.10700
C1034       C  0.55654480  0.38039826  0.34593501    -0.12200
C1035       C  0.94396221  0.37895038  0.15344006    -0.10700
C1036       C  0.92539713  0.38793448  0.12644637    -0.12200
C1037       C  0.95130522  0.41259788  0.04519906    -0.10800
C1038       C  0.92557012  0.42875069  0.07009103     0.11400
C1039       C  0.92368343  0.46821370  0.07076462    -0.10800
C1040       C  0.94732158  0.49030542  0.04828795    -0.10800
C1041       C  0.97398763  0.47417463  0.02413974     0.11400
C1042       C  0.97396433  0.43467693  0.02180638    -0.10800
H1043       H  0.95359427  0.38245062  0.04340867     0.15400
H1044       H  0.90468617  0.48241600  0.08935228     0.15400
H1045       H  0.94536227  0.02045729  0.05033380     0.15400
H1046       H  0.99111423  0.42000934  0.00200015     0.15400
C1047       C  0.90592047  0.37414863  0.30660916    -0.10700
C1048       C  0.87854317  0.36455297  0.32384893    -0.12200
C1049       C  0.82598282  0.32164974  0.27994413    -0.10800
C1050       C  0.82371576  0.32136459  0.31969131     0.11400
C1051       C  0.79861638  0.29605187  0.33667256    -0.10800
C1052       C  0.77710214  0.27177733  0.31512020    -0.10800
C1053       C  0.77733430  0.27374918  0.27528222     0.11400
C1054       C  0.80336878  0.29830487  0.25832434    -0.10800
H1055       H  0.84452963  0.34056395  0.26512928     0.15400
H1056       H  0.79604950  0.29450869  0.36705347     0.15400
H1057       H  0.76044454  0.25167772  0.33045145     0.15400
H1058       H  0.80539396  0.30017083  0.22791072     0.15400
C1059       C  0.88568929  0.37215687  0.07518614    -0.10700
C1060       C  0.87684808  0.34458403  0.05808611    -0.12200
C1061       C  0.87075841  0.30931295  0.40504629    -0.10700
C1062       C  0.86250892  0.32700213  0.37703817    -0.12200
C1063       C  0.86367365  0.17280423  0.12381447    -0.10700
C1064       C  0.87211262  0.19059037  0.09597328    -0.12200
C1065       C  0.82584840  0.17792045  0.22032767    -0.10800
C1066       C  0.82405061  0.17837267  0.18055463     0.11400
C1067       C  0.79934680  0.20402719  0.16335511    -0.10800
C1068       C  0.77776616  0.22847158  0.18472033    -0.10800
C1069       C  0.77748679  0.22635511  0.22454473     0.11400
C1070       C  0.80313807  0.20145232  0.24175381    -0.10800
H1071       H  0.84411743  0.15875850  0.23528882     0.15400
H1072       H  0.79717790  0.20572464  0.13295877     0.15400
H1073       H  0.76145486  0.24883765  0.16924500     0.15400
H1074       H  0.80478231  0.19948026  0.27218021     0.15400
C1075       C  0.69332043  0.40433280  0.12774660    -0.10700
C1076       C  0.67564631  0.37706386  0.13694572    -0.12200
C1077       C  0.84394835  0.44116005  0.12412693    -0.10700
C1078       C  0.87083770  0.42376300  0.11392329    -0.12200
C1079       C  0.65509335  0.05647565  0.12272075    -0.10700
C1080       C  0.62789576  0.07390678  0.11301838    -0.12200
C1081       C  0.82414203  0.12188843  0.14129255    -0.10700
C1082       C  0.80633582  0.09482809  0.13233067    -0.12200
C1083       C  0.82347568  0.37817621  0.35842403    -0.10700
C1084       C  0.80540975  0.40528128  0.36702620    -0.12200
C1085       C  0.62714109  0.42746234  0.38582098    -0.10700
C1086       C  0.65400815  0.44494587  0.37550228    -0.12200
C1087       C  0.67566934  0.12420713  0.36265312    -0.10700
C1088       C  0.69328262  0.09683444  0.37184917    -0.12200
C1089       C  0.88507163  0.12780881  0.42555846    -0.10700
C1090       C  0.87643002  0.15537777  0.44283474    -0.12200
C1091       C  0.84328221  0.05858514  0.37684416    -0.10700
C1092       C  0.87005617  0.07598535  0.38715525    -0.12200
C1093       C  0.95095454  0.08755529  0.45519965    -0.10800
C1094       C  0.92515626  0.07125113  0.43053947     0.11400
C1095       C  0.92350561  0.03178933  0.42997888    -0.10800
C1096       C  0.94729383  0.00983790  0.45249294    -0.10800
C1097       C  0.97379249  0.02611208  0.47664521     0.11400
C1098       C  0.97372949  0.06562263  0.47868874    -0.10800
H1099       H  0.95317421  0.11773011  0.45677147     0.15400
H1100       H  0.90457930  0.01749968  0.41148220     0.15400
H1101       H  0.94553366  0.47966107  0.45051844     0.15400
H1102       H  0.99093382  0.08037854  0.49827919     0.15400
C1103       C  0.87861481  0.13460337  0.17676820    -0.10700
C1104       C  0.90588261  0.12465601  0.19397063    -0.12200
C1105       C  0.62246192  0.13794622  0.32506556    -0.10700
C1106       C  0.59538327  0.12785308  0.30801886    -0.12200
C1107       C  0.57458838  0.11069026  0.12765651    -0.10700
C1108       C  0.55705381  0.11953020  0.15515723    -0.12200
C1109       C  0.92437841  0.11164463  0.37396548    -0.10700
C1110       C  0.94290504  0.12030989  0.34686617    -0.12200
O1111       O  0.54677918  0.09369340  0.77955230    -0.69200
O1112       O  0.95508815  0.09206521  0.72471277    -0.69400
O1113       O  0.52756137  0.09177765  0.70649041    -0.69300
O1114       O  0.97424110  0.09224099  0.79785170    -0.69300
O1115       O  0.97273660  0.15306371  0.79690895    -0.69200
O1116       O  0.52748905  0.15260218  0.70429379    -0.69200
O1117       O  0.95532043  0.15291342  0.72345359    -0.69200
O1118       O  0.54501052  0.15451421  0.77773314    -0.69400
V1119       V  0.50091218  0.09361407  0.75214304     1.35200
V1120       V  0.00016846  0.15208329  0.75064745     1.35200
C1121       C  0.56123010  0.12483372  0.78772886     0.80100
C1122       C  0.93993773  0.12268749  0.71483510     0.80100
C1123       C  0.53657197  0.12168925  0.68983148     0.80000
C1124       C  0.96421878  0.12230596  0.81282044     0.79900
C1125       C  0.90118302  0.09631765  0.90466259     0.00100
O1126       O  0.70308074  0.47506497  0.84209353    -0.69200
O1127       O  0.79479311  0.02954078  0.84288278    -0.69400
O1128       O  0.77564924  0.45683016  0.84024217    -0.69300
O1129       O  0.72241246  0.04752989  0.84281824    -0.69300
O1130       O  0.72262953  0.04627097  0.90412523    -0.69200
O1131       O  0.77611252  0.45352210  0.90148420    -0.69200
O1132       O  0.79451052  0.02626893  0.90413976    -0.69200
O1133       O  0.70415344  0.47364998  0.90338997    -0.69400
V1134       V  0.74900978  0.50216232  0.84318589     1.35200
V1135       V  0.74935633  0.99994114  0.90208213     1.36400
C1136       C  0.68821889  0.46540574  0.87311868     0.80100
C1137       C  0.80980416  0.03726287  0.87413935     0.80100
C1138       C  0.78486244  0.43966914  0.86999833     0.80000
C1139       C  0.71359672  0.06241334  0.87344070     0.79900
O1140       O  0.77750077  0.04636861  0.59780213    -0.69200
O1141       O  0.72320635  0.45431349  0.59550659    -0.69400
O1142       O  0.70536961  0.02721929  0.59535598    -0.69300
O1143       O  0.79529925  0.47336355  0.59607097    -0.69300
O1144       O  0.79503417  0.47081999  0.65735184    -0.69200
O1145       O  0.70365851  0.02620904  0.65663839    -0.69200
O1146       O  0.72250897  0.45355647  0.65681002    -0.69200
O1147       O  0.77626343  0.04370176  0.65905944    -0.69400
V1148       V  0.75034668  0.00030413  0.59738099     1.35200
V1149       V  0.74940460  0.49863659  0.65627836     1.35200
C1150       C  0.78590719  0.06046724  0.62924838     0.80100
C1151       C  0.71378339  0.43854104  0.62624685     0.80100
C1152       C  0.68917390  0.03583701  0.62540872     0.80000
C1153       C  0.81029888  0.46261613  0.62633789     0.79900
C1154       C  0.84758678  0.15193245  0.65599123     0.00100
O1155       O  0.84385846  0.20439698  0.97302039    -0.69200
O1156       O  0.84415111  0.29548937  0.52851759    -0.69400
O1157       O  0.84290447  0.27779668  0.95518537    -0.69300
O1158       O  0.84373485  0.22211835  0.54629229    -0.69300
O1159       O  0.90425223  0.22138919  0.54632956    -0.69200
O1160       O  0.90341012  0.27852610  0.95432803    -0.69200
O1161       O  0.90465755  0.29458838  0.52796994    -0.69200
O1162       O  0.90436113  0.20531532  0.97268568    -0.69400
V1163       V  0.84478453  0.24998116  0.00073732     1.35200
V1164       V  0.90302435  0.24993027  0.50034460     1.35200
C1165       C  0.87445934  0.18955031  0.96360728     0.80100
C1166       C  0.87481991  0.31033804  0.53748440     0.80100
C1167       C  0.87269732  0.28776656  0.93935875     0.80000
C1168       C  0.87376985  0.21215026  0.56170003     0.79900
C1169       C  0.84691515  0.34764020  0.84431491     0.00100
C1170       C  0.90181833  0.40352423  0.59615377     0.00100
O1171       O  0.54676687  0.40587065  0.72133008    -0.69200
O1172       O  0.95495361  0.40690688  0.77613077    -0.69400
O1173       O  0.52735876  0.40764910  0.79437571    -0.69300
O1174       O  0.97430111  0.40697559  0.70300181    -0.69300
O1175       O  0.97378694  0.34614187  0.70355058    -0.69200
O1176       O  0.52746775  0.34682919  0.79684713    -0.69200
O1177       O  0.95549351  0.34606567  0.77689053    -0.69200
O1178       O  0.54587115  0.34504941  0.72354426    -0.69400
V1179       V  0.50085242  0.40566847  0.74872490     1.35200
V1180       V  0.00067272  0.34720055  0.75016377     1.35200
C1181       C  0.56166144  0.37483405  0.71330181     0.80100
C1182       C  0.93991824  0.37619524  0.78574789     0.80100
C1183       C  0.53632270  0.37781631  0.81123026     0.80000
C1184       C  0.96492153  0.37690212  0.68775069     0.79900
C1185       C  0.65302280  0.15467993  0.84642106     0.00100
C1186       C  0.59708371  0.40572484  0.90327332     0.00100
C1187       C  0.65326810  0.34626630  0.65314693     0.00100
C1188       C  0.59687178  0.09538190  0.59662260     0.00100
O1189       O  0.65492056  0.20447801  0.52816910    -0.69200
O1190       O  0.65580405  0.29637118  0.97127614    -0.69400
O1191       O  0.65611648  0.27755152  0.54473514    -0.69300
O1192       O  0.65596789  0.22330761  0.95467463    -0.69300
O1193       O  0.59543274  0.22309837  0.95405868    -0.69200
O1194       O  0.59559179  0.27887400  0.54500762    -0.69200
O1195       O  0.59527830  0.29596285  0.97118537    -0.69200
O1196       O  0.59441243  0.20598906  0.52787485    -0.69400
V1197       V  0.65453518  0.25036441  0.49971818     1.35200
V1198       V  0.59636536  0.25105364  0.99951732     1.35200
C1199       C  0.62413053  0.18986786  0.53752052     0.80100
C1200       C  0.62528031  0.31155450  0.96178055     0.80100
C1201       C  0.62623364  0.28761814  0.56004848     0.80000
C1202       C  0.62602793  0.21380918  0.93918870     0.79900
C1203       C  0.00037429  0.50018226  0.00044457     0.00100
C1204       C  0.75108744  0.25004272  0.74972703     0.00100
C1205       C  0.62174197  0.15550278  0.55866717    -0.10700
C1206       C  0.61270679  0.12761682  0.57587209    -0.12200
C1207       C  0.57451541  0.07181043  0.53178235    -0.10800
C1208       C  0.57323996  0.06982010  0.57152398     0.11400
C1209       C  0.55045753  0.04205025  0.58801547    -0.10800
C1210       C  0.52763676  0.01931589  0.56597223    -0.10800
C1211       C  0.52660976  0.02330582  0.52624663     0.11400
C1212       C  0.55232944  0.04849498  0.50975105    -0.10800
H1213       H  0.59282924  0.09120688  0.51731515     0.15400
H1214       H  0.54996014  0.03821236  0.61833591     0.15400
H1215       H  0.01123948  0.99848594  0.58066291     0.15400
H1216       H  0.55411159  0.05121100  0.47937016     0.15400
C1217       C  0.62819495  0.30877466  0.59386789    -0.10700
C1218       C  0.63703658  0.32601817  0.62136223    -0.12200
C1219       C  0.67698025  0.28166061  0.67674315    -0.10800
C1220       C  0.67721315  0.32105666  0.67898667     0.11400
C1221       C  0.69950899  0.33710640  0.70706749    -0.10800
C1222       C  0.72282376  0.31508266  0.72994774    -0.10800
C1223       C  0.72480537  0.27581102  0.72579258     0.11400
C1224       C  0.69956190  0.25961558  0.70029795    -0.10800
H1225       H  0.65916985  0.26745291  0.65706209     0.15400
H1226       H  0.69921781  0.36710620  0.71102789     0.15400
H1227       H  0.73867822  0.32937010  0.75112479     0.15400
H1228       H  0.69838320  0.22948413  0.69760586     0.15400
C1229       C  0.61405900  0.37392576  0.92379976    -0.10700
C1230       C  0.62342612  0.34601856  0.94080113    -0.12200
C1231       C  0.57461922  0.42850829  0.96848414    -0.10800
C1232       C  0.57361570  0.43115188  0.92874919     0.11400
C1233       C  0.55097168  0.45926585  0.91254963    -0.10800
C1234       C  0.52804646  0.48176205  0.93479912    -0.10800
C1235       C  0.52678065  0.47718632  0.97446765     0.11400
C1236       C  0.55240115  0.45167616  0.99075065    -0.10800
H1237       H  0.59270916  0.40871316  0.98277418     0.15400
H1238       H  0.55063099  0.46350968  0.88226623     0.15400
H1239       H  0.01174277  0.50286931  0.92032621     0.15400
H1240       H  0.55402344  0.44855797  0.02111092     0.15400
C1241       C  0.63675966  0.17521306  0.87801690    -0.10700
C1242       C  0.62788595  0.19262983  0.90539662    -0.12200
C1243       C  0.67630744  0.21912282  0.82215603    -0.10800
C1244       C  0.67658181  0.17971008  0.82012704     0.11400
C1245       C  0.69879244  0.16345664  0.79204569    -0.10800
C1246       C  0.72221424  0.18528717  0.76917269    -0.10800
C1247       C  0.72438919  0.22453803  0.77335557     0.11400
C1248       C  0.69899485  0.24097218  0.79860521    -0.10800
H1249       H  0.65849120  0.23349576  0.84178056     0.15400
H1250       H  0.69847156  0.13345160  0.78819867     0.15400
H1251       H  0.73809786  0.17085910  0.74805329     0.15400
H1252       H  0.69788419  0.27110722  0.80121971     0.15400
C1253       C  0.59570102  0.37214315  0.69254805    -0.10700
C1254       C  0.62267525  0.36252867  0.67493737    -0.12200
C1255       C  0.57417954  0.38987424  0.87306457    -0.10700
C1256       C  0.55654713  0.38040512  0.84589644    -0.12200
C1257       C  0.94390438  0.37896343  0.65343494    -0.10700
C1258       C  0.92536972  0.38796760  0.62642644    -0.12200
C1259       C  0.95106782  0.41263194  0.54495809    -0.10800
C1260       C  0.92550968  0.42876943  0.57004690     0.11400
C1261       C  0.92376626  0.46823370  0.57089757    -0.10800
C1262       C  0.94735764  0.49033636  0.54837909    -0.10800
C1263       C  0.97386797  0.47420910  0.52405759     0.11400
C1264       C  0.97368784  0.43472834  0.52154706    -0.10800
H1265       H  0.95325078  0.38248972  0.54302485     0.15400
H1266       H  0.90491591  0.48241900  0.58965329     0.15400
H1267       H  0.94551496  0.02048394  0.55055076     0.15400
H1268       H  0.99068964  0.42009413  0.50157917     0.15400
C1269       C  0.90584069  0.37419415  0.80660196    -0.10700
C1270       C  0.87845606  0.36457077  0.82381363    -0.12200
C1271       C  0.82608204  0.32144027  0.77989852    -0.10800
C1272       C  0.82365994  0.32132767  0.81963561     0.11400
C1273       C  0.79845472  0.29612840  0.83662190    -0.10800
C1274       C  0.77697419  0.27180865  0.81508820    -0.10800
C1275       C  0.77734025  0.27363033  0.77524448     0.11400
C1276       C  0.80348374  0.29806940  0.75828694    -0.10800
H1277       H  0.84473259  0.34024544  0.76507768     0.15400
H1278       H  0.79578327  0.29470891  0.86699798     0.15400
H1279       H  0.76022500  0.25180581  0.83044545     0.15400
H1280       H  0.80561172  0.29982291  0.72787557     0.15400
C1281       C  0.88568617  0.37213334  0.57518699    -0.10700
C1282       C  0.87690042  0.34453665  0.55810133    -0.12200
C1283       C  0.87064919  0.30933008  0.90501224    -0.10700
C1284       C  0.86240613  0.32701095  0.87699646    -0.12200
C1285       C  0.86373356  0.17272017  0.62382056    -0.10700
C1286       C  0.87217749  0.19052566  0.59598962    -0.12200
C1287       C  0.82597731  0.17790353  0.72029988    -0.10800
C1288       C  0.82406862  0.17822087  0.68053199     0.11400
C1289       C  0.79922144  0.20372494  0.66332335    -0.10800
C1290       C  0.77761816  0.22816710  0.68467048    -0.10800
C1291       C  0.77747077  0.22619807  0.72450321     0.11400
C1292       C  0.80323616  0.20141635  0.74171540    -0.10800
H1293       H  0.84436060  0.15886238  0.73527380     0.15400
H1294       H  0.79696678  0.20531048  0.63292859     0.15400
H1295       H  0.76118811  0.24841592  0.66916706     0.15400
H1296       H  0.80496993  0.19954281  0.77214152     0.15400
C1297       C  0.69323444  0.40428068  0.62779683    -0.10700
C1298       C  0.67557204  0.37699571  0.63697774    -0.12200
C1299       C  0.84389001  0.44113706  0.62407455    -0.10700
C1300       C  0.87078889  0.42375555  0.61387429    -0.12200
C1301       C  0.65500484  0.05637514  0.62277046    -0.10700
C1302       C  0.62780193  0.07378676  0.61305612    -0.12200
C1303       C  0.82420434  0.12176760  0.64123243    -0.10700
C1304       C  0.80635796  0.09473394  0.63226331    -0.12200
C1305       C  0.82337012  0.37816998  0.85834069    -0.10700
C1306       C  0.80533403  0.40529692  0.86693697    -0.12200
C1307       C  0.62715413  0.42756674  0.88571238    -0.10700
C1308       C  0.65401545  0.44507227  0.87541733    -0.12200
C1309       C  0.67566580  0.12424838  0.86280173    -0.10700
C1310       C  0.69331489  0.09690463  0.87201191    -0.12200
C1311       C  0.88511168  0.12778249  0.92569260    -0.10700
C1312       C  0.87640476  0.15535951  0.94292362    -0.12200
C1313       C  0.84335366  0.05859018  0.87695191    -0.10700
C1314       C  0.87013130  0.07597808  0.88726732    -0.12200
C1315       C  0.95118076  0.08755235  0.95514557    -0.10800
C1316       C  0.92523361  0.07124647  0.93064911     0.11400
C1317       C  0.92344828  0.03178661  0.93023617    -0.10800
C1318       C  0.94726176  0.00983392  0.95271772    -0.10800
C1319       C  0.97389816  0.02610313  0.97671895     0.11400
C1320       C  0.97398460  0.06562479  0.97861245    -0.10800
H1321       H  0.95349759  0.11772677  0.95659766     0.15400
H1322       H  0.90439696  0.01749042  0.91187672     0.15400
H1323       H  0.94540041  0.47965726  0.95084263     0.15400
H1324       H  0.99133357  0.08039824  0.99805628     0.15400
C1325       C  0.87865704  0.13446945  0.67676641    -0.10700
C1326       C  0.90590628  0.12453301  0.69401093    -0.12200
C1327       C  0.62246485  0.13790290  0.82516031    -0.10700
C1328       C  0.59538885  0.12779585  0.80811564    -0.12200
C1329       C  0.57449363  0.11055247  0.62768015    -0.10700
C1330       C  0.55698180  0.11936871  0.65520440    -0.12200
C1331       C  0.92442938  0.11166038  0.87409084    -0.10700
C1332       C  0.94294604  0.12031798  0.84698273    -0.12200
O1333       O  0.54679140  0.59376564  0.27941509    -0.69200
O1334       O  0.95508226  0.59216608  0.22461340    -0.69400
O1335       O  0.52755223  0.59190563  0.20636511    -0.69300
O1336       O  0.97425748  0.59228242  0.29773944    -0.69300
O1337       O  0.97269596  0.65310382  0.29682021    -0.69200
O1338       O  0.52751966  0.65273192  0.20424422    -0.69200
O1339       O  0.95533293  0.65301475  0.22335697    -0.69200
O1340       O  0.54498425  0.65458714  0.27769366    -0.69400
V1341       V  0.50091546  0.59369990  0.25202436     1.35200
V1342       V  0.00016206  0.65216979  0.25057708     1.35200
C1343       C  0.56122380  0.62490188  0.28763760     0.80100
C1344       C  0.93993632  0.62279376  0.21474888     0.80100
C1345       C  0.53659819  0.62183078  0.18975346     0.80000
C1346       C  0.96419894  0.62233142  0.31271533     0.79900
C1347       C  0.90112184  0.59632632  0.40453822     0.00100
O1348       O  0.70305882  0.97490089  0.34210969    -0.69200
O1349       O  0.79472869  0.52946806  0.34281173    -0.69400
O1350       O  0.77564898  0.95673721  0.34027244    -0.69300
O1351       O  0.72232890  0.54738464  0.34272803    -0.69300
O1352       O  0.72258468  0.54622861  0.40403520    -0.69200
O1353       O  0.77610201  0.95350198  0.40151741    -0.69200
O1354       O  0.79446933  0.52625608  0.40407076    -0.69200
O1355       O  0.70412915  0.97360121  0.40340695    -0.69400
V1356       V  0.74896505  0.00204554  0.34315321     1.35200
V1357       V  0.74932919  0.49990378  0.40205741     1.36400
C1358       C  0.68820069  0.96529065  0.37315262     0.80100
C1359       C  0.80974517  0.53723346  0.37405590     0.80100
C1360       C  0.78487912  0.93962425  0.37004992     0.80000
C1361       C  0.71353479  0.56232189  0.37332931     0.79900
O1362       O  0.77754395  0.54645504  0.09782913    -0.69200
O1363       O  0.72333902  0.95434689  0.09548352    -0.69400
O1364       O  0.70543697  0.52724921  0.09532381    -0.69300
O1365       O  0.79541453  0.97345679  0.09610987    -0.69300
O1366       O  0.79506255  0.97082407  0.15738742    -0.69200
O1367       O  0.70372602  0.52629845  0.15660597    -0.69200
O1368       O  0.72252811  0.95361800  0.15678588    -0.69200
O1369       O  0.77633519  0.54373462  0.15908577    -0.69400
V1370       V  0.75043577  0.50036678  0.09737867     1.35200
V1371       V  0.74945168  0.99867631  0.15628795     1.35200
C1372       C  0.78594585  0.56053566  0.12928442     0.80100
C1373       C  0.71386322  0.93858825  0.12621359     0.80100
C1374       C  0.68924618  0.53590785  0.12536772     0.80000
C1375       C  0.81036882  0.96265892  0.12638288     0.79900
C1376       C  0.84754049  0.65205675  0.15600718     0.00100
O1377       O  0.84392989  0.70438949  0.47300212    -0.69200
O1378       O  0.84406926  0.79555233  0.02848326    -0.69400
O1379       O  0.84300023  0.77778930  0.45521591    -0.69300
O1380       O  0.84366158  0.72218703  0.04629378    -0.69300
O1381       O  0.90417938  0.72144426  0.04630548    -0.69200
O1382       O  0.90350636  0.77847777  0.45434566    -0.69200
O1383       O  0.90457517  0.79463697  0.02794642    -0.69200
O1384       O  0.90443347  0.70526585  0.47269700    -0.69400
V1385       V  0.84486936  0.74994609  0.50075141     1.35200
V1386       V  0.90294106  0.74998358  0.00032313     1.35200
C1387       C  0.87452204  0.68953499  0.46358148     0.80100
C1388       C  0.87474265  0.81039392  0.03745757     0.80100
C1389       C  0.87279674  0.78774165  0.43938492     0.80000
C1390       C  0.87370086  0.71221414  0.06168742     0.79900
C1391       C  0.84700147  0.84764765  0.34437140     0.00100
C1392       C  0.90185196  0.90351892  0.09618490     0.00100
O1393       O  0.54682374  0.90592266  0.22134573    -0.69200
O1394       O  0.95501202  0.90688154  0.27613673    -0.69400
O1395       O  0.52740774  0.90765260  0.29439340    -0.69300
O1396       O  0.97435997  0.90697909  0.20300640    -0.69300
O1397       O  0.97390038  0.84614489  0.20353050    -0.69200
O1398       O  0.52753134  0.84683190  0.29684746    -0.69200
O1399       O  0.95557105  0.84604046  0.27686149    -0.69200
O1400       O  0.54597785  0.84510011  0.22355209    -0.69400
V1401       V  0.50090981  0.90567709  0.24873467     1.35200
V1402       V  0.00076395  0.84720832  0.25015283     1.35200
C1403       C  0.56174258  0.87490072  0.21331293     0.80100
C1404       C  0.93998770  0.87616130  0.28573905     0.80100
C1405       C  0.53636318  0.87781596  0.31124767     0.80000
C1406       C  0.96500408  0.87690174  0.18774486     0.79900
C1407       C  0.65303368  0.65467535  0.34634314     0.00100
C1408       C  0.59703784  0.90565496  0.40336298     0.00100
C1409       C  0.65331643  0.84635946  0.15312494     0.00100
C1410       C  0.59694119  0.59548683  0.09659417     0.00100
O1411       O  0.65490473  0.70459582  0.02812239    -0.69200
O1412       O  0.65577192  0.79624545  0.47128454    -0.69400
O1413       O  0.65613063  0.77766084  0.04472225    -0.69300
O1414       O  0.65597600  0.72317008  0.45470065    -0.69300
O1415       O  0.59544131  0.72296332  0.45407099    -0.69200
O1416       O  0.59560678  0.77904724  0.04495937    -0.69200
O1417       O  0.59524673  0.79582185  0.47123544    -0.69200
O1418       O  0.59439749  0.70615335  0.02785268    -0.69400
V1419       V  0.65454784  0.75049167  0.99969400     1.35200
V1420       V  0.59636437  0.75090056  0.49954424     1.35200
C1421       C  0.62410846  0.69000233  0.03747516     0.80100
C1422       C  0.62523696  0.81142885  0.46182034     0.80100
C1423       C  0.62624886  0.78775536  0.06001950     0.80000
C1424       C  0.62603973  0.71367771  0.43920376     0.79900
C1425       C  0.00027367  0.00020456  0.50038055     0.00100
C1426       C  0.75108615  0.75016664  0.24976321     0.00100
C1427       C  0.62171535  0.65561850  0.05859147    -0.10700
C1428       C  0.61272514  0.62771657  0.07579477    -0.12200
C1429       C  0.57476394  0.57166090  0.03180121    -0.10800
C1430       C  0.57330007  0.56989064  0.07154181     0.11400
C1431       C  0.55035146  0.54228455  0.08807583    -0.10800
C1432       C  0.52754772  0.51951382  0.06605356    -0.10800
C1433       C  0.52670630  0.52329816  0.02630551     0.11400
C1434       C  0.55257304  0.54832664  0.00979467    -0.10800
H1435       H  0.59322461  0.59090625  0.01732282     0.15400
H1436       H  0.54970830  0.53860153  0.11841215     0.15400
H1437       H  0.01100463  0.49883612  0.08078658     0.15400
H1438       H  0.55448114  0.55089704  0.97940989     0.15400
C1439       C  0.62821145  0.80889701  0.09384593    -0.10700
C1440       C  0.63706409  0.82612093  0.12134773    -0.12200
C1441       C  0.67710345  0.78175915  0.17665329    -0.10800
C1442       C  0.67724347  0.82114923  0.17897656     0.11400
C1443       C  0.69942653  0.83719544  0.20715160    -0.10800
C1444       C  0.72271668  0.81517820  0.23006407    -0.10800
C1445       C  0.72479495  0.77592215  0.22583310     0.11400
C1446       C  0.69965587  0.75971958  0.20023958    -0.10800
H1447       H  0.65939053  0.76754911  0.15688432     0.15400
H1448       H  0.69906050  0.86718694  0.21116364     0.15400
H1449       H  0.73848040  0.82945153  0.25132229     0.15400
H1450       H  0.69855213  0.72959208  0.19748494     0.15400
C1451       C  0.61397876  0.87383825  0.42389933    -0.10700
C1452       C  0.62335395  0.84591479  0.44087349    -0.12200
C1453       C  0.57441926  0.92838725  0.46853903    -0.10800
C1454       C  0.57356361  0.93111135  0.42880624     0.11400
C1455       C  0.55105101  0.95932117  0.41257850    -0.10800
C1456       C  0.52811760  0.98185065  0.43479029    -0.10800
C1457       C  0.52670774  0.97720245  0.47444374     0.11400
C1458       C  0.55219928  0.95158676  0.49076885    -0.10800
H1459       H  0.59238915  0.90850372  0.48285567     0.15400
H1460       H  0.55082259  0.96361641  0.38229929     0.15400
H1461       H  0.01192345  0.00303877  0.42031162     0.15400
H1462       H  0.55370639  0.94840393  0.52113088     0.15400
C1463       C  0.63678097  0.67514971  0.37798512    -0.10700
C1464       C  0.62790600  0.69252342  0.40539371    -0.12200
C1465       C  0.67638643  0.71915658  0.32223966    -0.10800
C1466       C  0.67658973  0.67975029  0.32008737     0.11400
C1467       C  0.69872235  0.66354781  0.29191401    -0.10800
C1468       C  0.72213487  0.68540993  0.26906188    -0.10800
C1469       C  0.72438882  0.72464132  0.27336776     0.11400
C1470       C  0.69906487  0.74104065  0.29871038    -0.10800
H1471       H  0.65863252  0.73349934  0.34194410     0.15400
H1472       H  0.69834220  0.63355662  0.28797314     0.15400
H1473       H  0.73794503  0.67102615  0.24785494     0.15400
H1474       H  0.69800586  0.77116832  0.30141415     0.15400
C1475       C  0.59577413  0.87224640  0.19254515    -0.10700
C1476       C  0.62273794  0.86264651  0.17491326    -0.12200
C1477       C  0.57414525  0.88983158  0.37313569    -0.10700
C1478       C  0.55654385  0.88039091  0.34593863    -0.12200
C1479       C  0.94396452  0.87894799  0.15344182    -0.10700
C1480       C  0.92539961  0.88793337  0.12644840    -0.12200
C1481       C  0.95130916  0.91259826  0.04520363    -0.10800
C1482       C  0.92557314  0.92875154  0.07009442     0.11400
C1483       C  0.92368559  0.96821447  0.07076638    -0.10800
C1484       C  0.94732381  0.99030583  0.04828934    -0.10800
C1485       C  0.97399043  0.97417458  0.02414192     0.11400
C1486       C  0.97396818  0.93467683  0.02181041    -0.10800
H1487       H  0.95359881  0.88245107  0.04341452     0.15400
H1488       H  0.90468727  0.98241713  0.08935310     0.15400
H1489       H  0.94536060  0.52045701  0.05033358     0.15400
H1490       H  0.99111902  0.92000864  0.00200510     0.15400
C1491       C  0.90592007  0.87415010  0.30661035    -0.10700
C1492       C  0.87854183  0.86455614  0.32384938    -0.12200
C1493       C  0.82600399  0.82162803  0.27994426    -0.10800
C1494       C  0.82371343  0.82136818  0.31968988     0.11400
C1495       C  0.79859167  0.79607887  0.33667138    -0.10800
C1496       C  0.77707911  0.77180091  0.31512147    -0.10800
C1497       C  0.77733567  0.77374755  0.27528251     0.11400
C1498       C  0.80338893  0.79828355  0.25832534    -0.10800
H1499       H  0.84456988  0.84052272  0.26512853     0.15400
H1500       H  0.79600751  0.79455592  0.36705193     0.15400
H1501       H  0.76040296  0.75171989  0.33045648     0.15400
H1502       H  0.80543091  0.80013232  0.22791184     0.15400
C1503       C  0.88569059  0.87215938  0.07518775    -0.10700
C1504       C  0.87684874  0.84458769  0.05808619    -0.12200
C1505       C  0.87075511  0.80931158  0.40504304    -0.10700
C1506       C  0.86250549  0.82700138  0.37703544    -0.12200
C1507       C  0.86368000  0.67280779  0.12381506    -0.10700
C1508       C  0.87211876  0.69059630  0.09597540    -0.12200
C1509       C  0.82587247  0.67793653  0.22032432    -0.10800
C1510       C  0.82405489  0.67836856  0.18055217     0.11400
C1511       C  0.79933231  0.70400404  0.16335264    -0.10800
C1512       C  0.77775160  0.72844919  0.18471654    -0.10800
C1513       C  0.77749108  0.72635127  0.22454201     0.11400
C1514       C  0.80316025  0.70146664  0.24175036    -0.10800
H1515       H  0.84415840  0.65879120  0.23528617     0.15400
H1516       H  0.79714993  0.70568633  0.13295678     0.15400
H1517       H  0.76142473  0.74880059  0.16923799     0.15400
H1518       H  0.80481876  0.69950853  0.27217639     0.15400
C1519       C  0.69331904  0.90432924  0.12774735    -0.10700
C1520       C  0.67564446  0.87706038  0.13694553    -0.12200
C1521       C  0.84395088  0.94115900  0.12413356    -0.10700
C1522       C  0.87084088  0.92376386  0.11392805    -0.12200
C1523       C  0.65509295  0.55647894  0.12271384    -0.10700
C1524       C  0.62789411  0.57390875  0.11301316    -0.12200
C1525       C  0.82414747  0.62188921  0.14128268    -0.10700
C1526       C  0.80633966  0.59483094  0.13231764    -0.12200
C1527       C  0.82347428  0.87817828  0.35842432    -0.10700
C1528       C  0.80540695  0.90528244  0.36702616    -0.12200
C1529       C  0.62713875  0.92746391  0.38581400    -0.10700
C1530       C  0.65400436  0.94494844  0.37549327    -0.12200
C1531       C  0.67566888  0.62420302  0.36265756    -0.10700
C1532       C  0.69328173  0.59683104  0.37185691    -0.12200
C1533       C  0.88507377  0.62781129  0.42555810    -0.10700
C1534       C  0.87643194  0.65537967  0.44283529    -0.12200
C1535       C  0.84328345  0.55858763  0.37684441    -0.10700
C1536       C  0.87005743  0.57598828  0.38715468    -0.12200
C1537       C  0.95095493  0.58755620  0.45520001    -0.10800
C1538       C  0.92515697  0.57125273  0.43053910     0.11400
C1539       C  0.92350552  0.53179093  0.42997814    -0.10800
C1540       C  0.94729260  0.50983889  0.45249278    -0.10800
C1541       C  0.97379091  0.52611240  0.47664582     0.11400
C1542       C  0.97372871  0.56562294  0.47868952    -0.10800
H1543       H  0.95317523  0.61773107  0.45677208     0.15400
H1544       H  0.90457955  0.51750185  0.41148084     0.15400
H1545       H  0.94553542  0.97966021  0.45051884     0.15400
H1546       H  0.99093313  0.58037852  0.49828053     0.15400
C1547       C  0.87861832  0.63459808  0.17676375    -0.10700
C1548       C  0.90588532  0.62465106  0.19396750    -0.12200
C1549       C  0.62246581  0.63794397  0.32506245    -0.10700
C1550       C  0.59538647  0.62785375  0.30801495    -0.12200
C1551       C  0.57458705  0.61069197  0.12765264    -0.10700
C1552       C  0.55705295  0.61953116  0.15515386    -0.12200
C1553       C  0.92438086  0.61164600  0.37396489    -0.10700
C1554       C  0.94290794  0.62030991  0.34686538    -0.12200
O1555       O  0.54678342  0.59369711  0.77955189    -0.69200
O1556       O  0.95509329  0.59206703  0.72471173    -0.69400
O1557       O  0.52756616  0.59178191  0.70648988    -0.69300
O1558       O  0.97424498  0.59224337  0.79785110    -0.69300
O1559       O  0.97273942  0.65306603  0.79690861    -0.69200
O1560       O  0.52749236  0.65260643  0.70429359    -0.69200
O1561       O  0.95532366  0.65291527  0.72345290    -0.69200
O1562       O  0.54501423  0.65451790  0.77773325    -0.69400
V1563       V  0.50091671  0.59361732  0.75214255     1.35200
V1564       V  0.00017168  0.65208632  0.75064720     1.35200
C1565       C  0.56123426  0.62483737  0.78772853     0.80100
C1566       C  0.93994231  0.62268877  0.71483362     0.80100
C1567       C  0.53657567  0.62169383  0.68983084     0.80000
C1568       C  0.96422169  0.62230811  0.81281983     0.79900
C1569       C  0.90118310  0.59632086  0.90466143     0.00100
O1570       O  0.70307795  0.97506867  0.84209091    -0.69200
O1571       O  0.79479477  0.52953913  0.84288363    -0.69400
O1572       O  0.77564620  0.95683271  0.84024299    -0.69300
O1573       O  0.72241388  0.54752620  0.84282244    -0.69300
O1574       O  0.72263311  0.54626554  0.90412940    -0.69200
O1575       O  0.77610735  0.95352658  0.90148512    -0.69200
O1576       O  0.79451464  0.52626522  0.90414053    -0.69200
O1577       O  0.70414836  0.97365572  0.90338741    -0.69400
V1578       V  0.74900739  0.00216532  0.84318417     1.35200
V1579       V  0.74936090  0.49993630  0.90208378     1.36400
C1580       C  0.68821506  0.96541031  0.87311580     0.80100
C1581       C  0.80980647  0.53726126  0.87413988     0.80100
C1582       C  0.78485879  0.93967292  0.87000003     0.80000
C1583       C  0.71359872  0.56240850  0.87344563     0.79900
O1584       O  0.77750263  0.54637184  0.59779475    -0.69200
O1585       O  0.72320708  0.95430960  0.59550906    -0.69400
O1586       O  0.70537041  0.52722411  0.59534943    -0.69300
O1587       O  0.79529986  0.97336125  0.59607458    -0.69300
O1588       O  0.79503458  0.97081389  0.65735534    -0.69200
O1589       O  0.70365900  0.52621619  0.65663183    -0.69200
O1590       O  0.72250911  0.95354956  0.65681251    -0.69200
O1591       O  0.77626419  0.54370827  0.65905210    -0.69400
V1592       V  0.75034694  0.50030786  0.59737591     1.35200
V1593       V  0.74940446  0.99862984  0.65628341     1.35200
C1594       C  0.78590939  0.56047172  0.62924042     0.80100
C1595       C  0.71378337  0.93853602  0.62624841     0.80100
C1596       C  0.68917452  0.53584291  0.62540178     0.80000
C1597       C  0.81029994  0.96261277  0.62634091     0.79900
C1598       C  0.84759292  0.65193284  0.65598859     0.00100
O1599       O  0.84385885  0.70439884  0.97302300    -0.69200
O1600       O  0.84415260  0.79549233  0.52851664    -0.69400
O1601       O  0.84290179  0.77779822  0.95518692    -0.69300
O1602       O  0.84373832  0.72212198  0.54629310    -0.69300
O1603       O  0.90425572  0.72139519  0.54632912    -0.69200
O1604       O  0.90340738  0.77852790  0.95432580    -0.69200
O1605       O  0.90465903  0.79459328  0.52796557    -0.69200
O1606       O  0.90436148  0.70531809  0.97268684    -0.69400
V1607       V  0.84478488  0.74998360  0.00073928     1.35200
V1608       V  0.90302576  0.74993379  0.50034264     1.35200
C1609       C  0.87445974  0.68955255  0.96360912     0.80100
C1610       C  0.87482145  0.81034200  0.53748166     0.80100
C1611       C  0.87269364  0.78776760  0.93935807     0.80000
C1612       C  0.87377398  0.71215574  0.56170061     0.79900
C1613       C  0.84691326  0.84764576  0.84431591     0.00100
C1614       C  0.90182187  0.90352499  0.59615479     0.00100
O1615       O  0.54676913  0.90586301  0.72133237    -0.69200
O1616       O  0.95495644  0.90690583  0.77613350    -0.69400
O1617       O  0.52736139  0.90764358  0.79437796    -0.69300
O1618       O  0.97430342  0.90697217  0.70300427    -0.69300
O1619       O  0.97378563  0.84613852  0.70355357    -0.69200
O1620       O  0.52746649  0.84682371  0.79685049    -0.69200
O1621       O  0.95549201  0.84606460  0.77689389    -0.69200
O1622       O  0.54587002  0.84504186  0.72354736    -0.69400
V1623       V  0.50085480  0.90566404  0.74872725     1.35200
V1624       V  0.00067146  0.84719602  0.75016699     1.35200
C1625       C  0.56166203  0.87482552  0.71330448     0.80100
C1626       C  0.93991898  0.87619544  0.78575118     0.80100
C1627       C  0.53632341  0.87781056  0.81123314     0.80000
C1628       C  0.96492223  0.87689918  0.68775320     0.79900
C1629       C  0.65302933  0.65467651  0.84642172     0.00100
C1630       C  0.59708529  0.90572405  0.90327356     0.00100
C1631       C  0.65326941  0.84626106  0.65314712     0.00100
C1632       C  0.59687009  0.59538599  0.59661855     0.00100
O1633       O  0.65492348  0.70447789  0.52816247    -0.69200
O1634       O  0.65581186  0.79637336  0.97127779    -0.69400
O1635       O  0.65612204  0.77755019  0.54473215    -0.69300
O1636       O  0.65597574  0.72331028  0.95467337    -0.69300
O1637       O  0.59544061  0.72310173  0.95405447    -0.69200
O1638       O  0.59559737  0.77887537  0.54500244    -0.69200
O1639       O  0.59528611  0.79596538  0.97118370    -0.69200
O1640       O  0.59441541  0.70599187  0.52786663    -0.69400
V1641       V  0.65454101  0.75036557  0.49971357     1.35200
V1642       V  0.59637114  0.75105540  0.99951402     1.35200
C1643       C  0.62413246  0.68986914  0.53751285     0.80100
C1644       C  0.62528863  0.81155709  0.96178094     0.80100
C1645       C  0.62623902  0.78761669  0.56004528     0.80000
C1646       C  0.62603638  0.71381245  0.93918584     0.79900
C1647       C  0.00037685  0.00018190  0.00044608     0.00100
C1648       C  0.75109288  0.75004104  0.74972676     0.00100
C1649       C  0.62174145  0.65550449  0.55865979    -0.10700
C1650       C  0.61270460  0.62761988  0.57586600    -0.12200
C1651       C  0.57451434  0.57180961  0.53178043    -0.10800
C1652       C  0.57323670  0.56982362  0.57152204     0.11400
C1653       C  0.55045183  0.54205669  0.58801531    -0.10800
C1654       C  0.52763133  0.51932080  0.56597321    -0.10800
C1655       C  0.52660708  0.52330636  0.52624723     0.11400
C1656       C  0.55232836  0.54849316  0.50975043    -0.10800
H1657       H  0.59283030  0.59120368  0.51731200     0.15400
H1658       H  0.54995259  0.53822205  0.61833592     0.15400
H1659       H  0.01123158  0.49849379  0.58066512     0.15400
H1660       H  0.55411192  0.55120639  0.47936970     0.15400
C1661       C  0.62819960  0.80876965  0.59386689    -0.10700
C1662       C  0.63703941  0.82601155  0.62136276    -0.12200
C1663       C  0.67697197  0.78165679  0.67675539    -0.10800
C1664       C  0.67721749  0.82105354  0.67898566     0.11400
C1665       C  0.69952776  0.83710609  0.70705303    -0.10800
C1666       C  0.72284464  0.81508331  0.72993156    -0.10800
C1667       C  0.72481183  0.77580922  0.72579059     0.11400
C1668       C  0.69955557  0.75961279  0.70030927    -0.10800
H1669       H  0.65914956  0.76744832  0.65708593     0.15400
H1670       H  0.69924687  0.86710741  0.71100382     0.15400
H1671       H  0.73871223  0.82937447  0.75109591     0.15400
H1672       H  0.69836713  0.72948059  0.69762759     0.15400
C1673       C  0.61406501  0.87392753  0.92380034    -0.10700
C1674       C  0.62343495  0.84602140  0.94080193    -0.12200
C1675       C  0.57462194  0.92850803  0.96848479    -0.10800
C1676       C  0.57361680  0.93115040  0.92874977     0.11400
C1677       C  0.55097127  0.95926316  0.91255033    -0.10800
C1678       C  0.52804691  0.98176001  0.93480009    -0.10800
C1679       C  0.52678295  0.97718580  0.97446890     0.11400
C1680       C  0.55240435  0.95167632  0.99075152    -0.10800
H1681       H  0.59271265  0.90871386  0.98277457     0.15400
H1682       H  0.55062910  0.96350590  0.88226668     0.15400
H1683       H  0.01174160  0.00286588  0.92032686     0.15400
H1684       H  0.55402787  0.94855898  0.02111191     0.15400
C1685       C  0.63676773  0.67521346  0.87801568    -0.10700
C1686       C  0.62789532  0.69263271  0.90539413    -0.12200
C1687       C  0.67629408  0.71911790  0.82213530    -0.10800
C1688       C  0.67659075  0.67970403  0.82012755     0.11400
C1689       C  0.69882236  0.66344777  0.79206484    -0.10800
C1690       C  0.72224376  0.68527898  0.76919212    -0.10800
C1691       C  0.72439638  0.72453367  0.77335534     0.11400
C1692       C  0.69898208  0.74096725  0.79858518    -0.10800
H1693       H  0.65845914  0.73349127  0.84174224     0.15400
H1694       H  0.69851844  0.63344062  0.78823232     0.15400
H1695       H  0.73814470  0.67084704  0.74808895     0.15400
H1696       H  0.69785468  0.77110335  0.80118433     0.15400
C1697       C  0.59570162  0.87213313  0.69255063    -0.10700
C1698       C  0.62267612  0.86252049  0.67493920    -0.12200
C1699       C  0.57418062  0.88987004  0.87306683    -0.10700
C1700       C  0.55654794  0.88039914  0.84589942    -0.12200
C1701       C  0.94390591  0.87896160  0.65343675    -0.10700
C1702       C  0.92537247  0.88796688  0.62642760    -0.12200
C1703       C  0.95107108  0.91263236  0.54495855    -0.10800
C1704       C  0.92551394  0.92877007  0.57004840     0.11400
C1705       C  0.92377129  0.96823429  0.57089955    -0.10800
C1706       C  0.94736194  0.99033680  0.54838010    -0.10800
C1707       C  0.97387087  0.97420927  0.52405716     0.11400
C1708       C  0.97369043  0.93472860  0.52154665    -0.10800
H1709       H  0.95325351  0.88249029  0.54302499     0.15400
H1710       H  0.90492170  0.98241973  0.58965631     0.15400
H1711       H  0.94551002  0.52048371  0.55054941     0.15400
H1712       H  0.99069167  0.92009433  0.50157798     0.15400
C1713       C  0.90584137  0.87419741  0.80660560    -0.10700
C1714       C  0.87845552  0.86457626  0.82381661    -0.12200
C1715       C  0.82610343  0.82142156  0.77990085    -0.10800
C1716       C  0.82365685  0.82133519  0.81963608     0.11400
C1717       C  0.79842808  0.79616039  0.83662225    -0.10800
C1718       C  0.77694970  0.77183688  0.81509079    -0.10800
C1719       C  0.77734162  0.77363189  0.77524626     0.11400
C1720       C  0.80350439  0.79805094  0.75828985    -0.10800
H1721       H  0.84477402  0.84020649  0.76507942     0.15400
H1722       H  0.79573839  0.79476202  0.86699713     0.15400
H1723       H  0.76018110  0.75185318  0.83045188     0.15400
H1724       H  0.80565012  0.79978653  0.72787910     0.15400
C1725       C  0.88568894  0.87213538  0.57518674    -0.10700
C1726       C  0.87690228  0.84454000  0.55809949    -0.12200
C1727       C  0.87064363  0.80933027  0.90501118    -0.10700
C1728       C  0.86240144  0.82701248  0.87699602    -0.12200
C1729       C  0.86373941  0.67272459  0.62382056    -0.10700
C1730       C  0.87218289  0.69053176  0.59599059    -0.12200
C1731       C  0.82600149  0.67792082  0.72029764    -0.10800
C1732       C  0.82407447  0.67821958  0.68053060     0.11400
C1733       C  0.79921042  0.70370647  0.66332231    -0.10800
C1734       C  0.77760695  0.72814928  0.68466825    -0.10800
C1735       C  0.77747676  0.72619704  0.72450195     0.11400
C1736       C  0.80325890  0.70143237  0.74171319    -0.10800
H1737       H  0.84439988  0.65889510  0.73527172     0.15400
H1738       H  0.79694327  0.70527831  0.63292769     0.15400
H1739       H  0.76116308  0.74838391  0.66916250     0.15400
H1740       H  0.80500593  0.69957172  0.77213920     0.15400
C1741       C  0.69323291  0.90427677  0.62779617    -0.10700
C1742       C  0.67557005  0.87699206  0.63697640    -0.12200
C1743       C  0.84389257  0.94113603  0.62407633    -0.10700
C1744       C  0.87079243  0.92375633  0.61387545    -0.12200
C1745       C  0.65500509  0.55638034  0.62276306    -0.10700
C1746       C  0.62780117  0.57379108  0.61305024    -0.12200
C1747       C  0.82421063  0.62176925  0.64122600    -0.10700
C1748       C  0.80636268  0.59473722  0.63225465    -0.12200
C1749       C  0.82336945  0.87817577  0.85834354    -0.10700
C1750       C  0.80533210  0.90530168  0.86694027    -0.12200
C1751       C  0.62715271  0.92756801  0.88570988    -0.10700
C1752       C  0.65401240  0.94507552  0.87541391    -0.12200
C1753       C  0.67566828  0.62424352  0.86280624    -0.10700
C1754       C  0.69331618  0.59689946  0.87201809    -0.12200
C1755       C  0.88511211  0.62778577  0.92569207    -0.10700
C1756       C  0.87640529  0.65536208  0.94292453    -0.12200
C1757       C  0.84335434  0.55859149  0.87695176    -0.10700
C1758       C  0.87013109  0.57598137  0.88726633    -0.12200
C1759       C  0.95117899  0.58755399  0.95514609    -0.10800
C1760       C  0.92523305  0.57124889  0.93064782     0.11400
C1761       C  0.92344822  0.53178900  0.93023302    -0.10800
C1762       C  0.94726085  0.50983557  0.95271472    -0.10800
C1763       C  0.97389607  0.52610402  0.97671765     0.11400
C1764       C  0.97398192  0.56562558  0.97861300    -0.10800
H1765       H  0.95349550  0.61772816  0.95659965     0.15400
H1766       H  0.90439798  0.51749335  0.91187200     0.15400
H1767       H  0.94540093  0.97965557  0.95084698     0.15400
H1768       H  0.99132996  0.58039845  0.99805851     0.15400
C1769       C  0.87866279  0.63446798  0.67676252    -0.10700
C1770       C  0.90591187  0.62453266  0.69400782    -0.12200
C1771       C  0.62247073  0.63790214  0.82515988    -0.10700
C1772       C  0.59539354  0.62779863  0.80811484    -0.12200
C1773       C  0.57449429  0.61055771  0.62767739    -0.10700
C1774       C  0.55698420  0.61937398  0.65520282    -0.12200
C1775       C  0.92443011  0.61166307  0.87408957    -0.10700
C1776       C  0.94294778  0.62031984  0.84698171    -0.12200
loop_ 
_geom_bond_atom_site_label_1 
_geom_bond_atom_site_label_2 
_geom_bond_distance 
_geom_bond_site_symmetry_2 
_ccdc_geom_bond_type 
O1            V9   1.914       .  S
O1           C11   1.267       .  A
O2          V897   1.915       .  S
O2           C12   1.267       .  A
O3            V9   1.884       .  S
O3           C13   1.258       .  A
O4          V897   1.884       .  S
O4           C14   1.258       .  A
O5           V10   1.916       .  S
O5           C14   1.267       .  A
O6          V898   1.916       .  S
O6           C13   1.267       .  A
O7           V10   1.879       .  S
O7           C12   1.257       .  A
O8          V898   1.879       .  S
O8           C11   1.257       .  A
V9          O890   1.915   1_455  S
V9          O892   1.884   1_455  S
V9          V898   2.091       .  T
V10         O894   1.916       .  S
V10         O896   1.879       .  S
V10         V897   2.091       .  T
C11         C218   1.430       .  S
C12         C216   1.430       .  S
C13         C220   1.434       .  S
C14         C222   1.434       .  S
C15         C201   1.476       .  S
C15         C204   1.474       .  S
C15         C221   1.470       .  S
C15         C206   1.541       .  S
O16          V24   1.917       .  S
O16          C26   1.268       .  A
O17         V468   1.917       .  S
O17          C27   1.268       .  A
O18          V24   1.885       .  S
O18          C28   1.258       .  A
O19         V468   1.881       .  S
O19          C29   1.257       .  A
O20          V25   1.916   1_545  S
O20          C29   1.267       .  A
O21         V469   1.917       .  S
O21          C28   1.268       .  A
O22          V25   1.880   1_545  S
O22          C27   1.257       .  A
O23         V469   1.879       .  S
O23          C26   1.256       .  A
V24         O461   1.917       .  S
V24         O463   1.881       .  S
V24         V469   2.091       .  T
V25         O465   1.917       .  S
V25         O467   1.879       .  S
V25         V468   2.091   1_565  T
C26         C198   1.431       .  S
C27         C203   1.432       .  S
C28         C196   1.437       .  S
C29         C200   1.432       .  S
O30          V38   1.916       .  S
O30          C40   1.268       .  A
O31         V482   1.916       .  S
O31          C41   1.267       .  A
O32          V38   1.881       .  S
O32          C42   1.257       .  A
O33         V482   1.881       .  S
O33          C43   1.257       .  A
O34          V39   1.917       .  S
O34          C43   1.268       .  A
O35         V483   1.916   1_545  S
O35          C42   1.268       .  A
O36          V39   1.881       .  S
O36          C41   1.257       .  A
O37         V483   1.884   1_545  S
O37          C40   1.258       .  A
V38         O475   1.916   1_545  S
V38         O477   1.881   1_545  S
V38         V483   2.091   1_545  T
V39         O479   1.916       .  S
V39         O481   1.884       .  S
V39         V482   2.091       .  T
C40         C194   1.435       .  S
C41         C187   1.432       .  S
C42         C191   1.432       .  S
C43         C189   1.433       .  S
C44         C175   1.473       .  S
C44         C193   1.471       .  S
C44         C215   1.471       .  S
C44         C178   1.542       .  S
O45          V53   1.916       .  S
O45          C55   1.267       .  A
O46         V275   1.916       .  S
O46          C56   1.267       .  A
O47          V53   1.887       .  S
O47          C57   1.259       .  A
O48         V275   1.886       .  S
O48          C58   1.259       .  A
O49          V54   1.913       .  S
O49          C58   1.266       .  A
O50         V276   1.913       .  S
O50          C57   1.266       .  A
O51          V54   1.886       .  S
O51          C56   1.259       .  A
O52         V276   1.887       .  S
O52          C55   1.259       .  A
V53         O268   1.915       .  S
V53         O270   1.886       .  S
V53         V276   2.090       .  T
V54         O272   1.913   1_554  S
V54         O274   1.887   1_554  S
V54         V275   2.090       .  T
C55         C202   1.436       .  S
C56         C172   1.436       .  S
C57         C173   1.435       .  S
C58         C176   1.434       .  S
C59         C160   1.474       .  S
C59         C174   1.474       .  S
C59         C195   1.472       .  S
C59         C162   1.542       .  S
C60         C148   1.470       .  S
C60         C171   1.475       .  S
C60         C190   1.474       .  S
C60         C150   1.542       .  S
O61          V69   1.915       .  S
O61          C71   1.267       .  A
O62         V957   1.916       .  S
O62          C72   1.267       .  A
O63          V69   1.882       .  S
O63          C73   1.257       .  A
O64         V957   1.883       .  S
O64          C74   1.257       .  A
O65          V70   1.917       .  S
O65          C74   1.268       .  A
O66         V958   1.916       .  S
O66          C73   1.268       .  A
O67          V70   1.881       .  S
O67          C72   1.257       .  A
O68         V958   1.881       .  S
O68          C71   1.257       .  A
V69         O950   1.916   1_455  S
V69         O952   1.883   1_455  S
V69         V958   2.091       .  T
V70         O954   1.916       .  S
V70         O956   1.881       .  S
V70         V957   2.091       .  T
C71         C143   1.432       .  S
C72         C159   1.432       .  S
C73         C146   1.433       .  S
C74         C147   1.434       .  S
C75         C131   1.470       .  S
C75         C199   1.471       .  S
C75         C217   1.467       .  S
C75         C134   1.539       .  S
C76         C119   1.473       .  S
C76         C145   1.472       .  S
C76         C197   1.468       .  S
C76         C122   1.541       .  S
C77         C108   1.470       .  S
C77         C144   1.468       .  S
C77         C188   1.471       .  S
C77         C110   1.539       .  S
C78          C96   1.474       .  S
C78         C192   1.469       .  S
C78         C219   1.473       .  S
C78          C98   1.542       .  S
O79          V87   1.914   1_554  S
O79          C89   1.267       .  A
O80         V309   1.914       .  S
O80          C90   1.267       .  A
O81          V87   1.883   1_554  S
O81          C91   1.258       .  A
O82         V309   1.882       .  S
O82          C92   1.258       .  A
O83          V88   1.910       .  S
O83          C92   1.266       .  A
O84         V310   1.910   1_554  S
O84          C91   1.266       .  A
O85          V88   1.883       .  S
O85          C90   1.258       .  A
O86         V310   1.884   1_554  S
O86          C89   1.258       .  A
V87         O302   1.914       .  S
V87         O304   1.882       .  S
V87         V310   2.091       .  T
V88         O306   1.910       .  S
V88         O308   1.884       .  S
V88         V309   2.091       .  T
C89          C95   1.434       .  S
C90         C120   1.432       .  S
C91         C107   1.429       .  S
C92         C132   1.429       .  S
C93        C1655   1.564       .  S
C93        C1013   1.564       .  S
C93         C375   1.566       .  S
C93         C653   1.565       .  S
C94         C113   1.561       .  S
C94         C137   1.561       .  S
C94         C165   1.564       .  S
C94         C181   1.564       .  S
C95          C96   1.207       .  T
C97          C98   1.412       .  A
C97         C102   1.401       .  A
C97         H103   1.082       .  S
C98          C99   1.409       .  A
C99         C100   1.402       .  A
C99         H104   1.083       .  S
C100        C101   1.415       .  A
C100        H993   1.079   1_545  S
C101       C1647   1.564       .  S
C101        C102   1.413       .  A
C102        H106   1.083   1_554  S
H105        C988   1.079   1_565  S
C107        C108   1.205       .  T
C109        C110   1.412       .  A
C109        C114   1.399       .  A
C109        H115   1.080       .  S
C110        C111   1.408       .  A
C111        C112   1.400       .  A
C111        H116   1.084       .  S
C112        C113   1.416       .  A
C112        H117   1.078       .  S
C113        C114   1.412       .  A
C114        H118   1.084       .  S
C119        C120   1.206       .  T
C121        C122   1.412       .  A
C121        C126   1.401       .  A
C121        H127   1.081       .  S
C122        C123   1.409       .  A
C123        C124   1.402       .  A
C123        H128   1.083       .  S
C124        C125   1.416       .  A
C124       H1017   1.079       .  S
C125        C981   1.564       .  S
C125        C126   1.413       .  A
C126        H130   1.083       .  S
H129       C1012   1.079       .  S
C131        C132   1.204       .  T
C133        C134   1.412       .  A
C133        C138   1.399       .  A
C133        H139   1.081       .  S
C134        C135   1.408       .  A
C135        C136   1.401       .  A
C135        H140   1.084       .  S
C136        C137   1.416       .  A
C136        H141   1.079       .  S
C137        C138   1.412       .  A
C138        H142   1.084       .  S
C143        C144   1.206       .  T
C145        C146   1.207       .  T
C147        C148   1.207       .  T
C149        C150   1.408       .  A
C149        C154   1.400       .  A
C149        H155   1.084       .  S
C150        C151   1.413       .  A
C151        C152   1.403       .  A
C151        H156   1.080       .  S
C152        C153   1.413       .  A
C152        H601   1.084       .  S
C153        C315   1.566       .  S
C153        C154   1.416       .  A
C154        H158   1.076       .  S
H157        C596   1.084   1_545  S
C159        C160   1.207       .  T
C161        C162   1.413       .  A
C161        C166   1.402       .  A
C161        H167   1.082       .  S
C162        C163   1.409       .  A
C163        C164   1.399       .  A
C163        H168   1.083       .  S
C164        C165   1.415       .  A
C164        H169   1.078       .  S
C165        C166   1.413       .  A
C166        H170   1.083       .  S
C171        C172   1.208       .  T
C173        C174   1.207       .  T
C175        C176   1.207       .  T
C177        C178   1.413       .  A
C177        C182   1.403       .  A
C177        H183   1.082       .  S
C178        C179   1.408       .  A
C179        C180   1.399       .  A
C179        H184   1.082       .  S
C180        C181   1.414       .  A
C180        H185   1.078       .  S
C181        C182   1.413       .  A
C182        H186   1.083       .  S
C187        C188   1.206       .  T
C189        C190   1.207       .  T
C191        C192   1.206       .  T
C193        C194   1.208       .  T
C195        C196   1.208       .  T
C197        C198   1.206       .  T
C199        C200   1.206       .  T
C201        C202   1.208       .  T
C203        C204   1.207       .  T
C205        C206   1.408       .  A
C205        C210   1.400       .  A
C205        H211   1.084       .  S
C206        C207   1.413       .  A
C207        C208   1.402       .  A
C207        H212   1.080       .  S
C208        C209   1.413       .  A
C208        H657   1.084   1_545  S
C209        C537   1.565       .  S
C209        C210   1.416       .  A
C210        H214   1.075       .  S
H213        C652   1.084       .  S
C215        C216   1.205       .  T
C217        C218   1.205       .  T
C219        C220   1.207       .  T
C221        C222   1.207       .  T
O223        V231   1.914       .  S
O223        C233   1.267       .  A
O224       V1119   1.915       .  S
O224        C234   1.267       .  A
O225        V231   1.884       .  S
O225        C235   1.258       .  A
O226       V1119   1.884       .  S
O226        C236   1.258       .  A
O227        V232   1.916       .  S
O227        C236   1.267       .  A
O228       V1120   1.916       .  S
O228        C235   1.267       .  A
O229        V232   1.879       .  S
O229        C234   1.257       .  A
O230       V1120   1.879       .  S
O230        C233   1.257       .  A
V231       O1112   1.915   1_455  S
V231       O1114   1.884   1_455  S
V231       V1120   2.091       .  T
V232       O1116   1.916       .  S
V232       O1118   1.879       .  S
V232       V1119   2.091       .  T
C233        C440   1.430       .  S
C234        C438   1.430       .  S
C235        C442   1.434       .  S
C236        C444   1.434       .  S
C237        C423   1.476       .  S
C237        C426   1.474       .  S
C237        C443   1.470       .  S
C237        C428   1.541       .  S
O238        V246   1.917       .  S
O238        C248   1.268       .  A
O239        V690   1.916       .  S
O239        C249   1.268       .  A
O240        V246   1.885       .  S
O240        C250   1.258       .  A
O241        V690   1.881       .  S
O241        C251   1.257       .  A
O242        V247   1.916   1_545  S
O242        C251   1.267       .  A
O243        V691   1.917       .  S
O243        C250   1.268       .  A
O244        V247   1.880   1_545  S
O244        C249   1.257       .  A
O245        V691   1.879       .  S
O245        C248   1.256       .  A
V246        O683   1.916       .  S
V246        O685   1.881       .  S
V246        V691   2.091       .  T
V247        O687   1.917       .  S
V247        O689   1.879       .  S
V247        V690   2.091   1_565  T
C248        C420   1.431       .  S
C249        C425   1.432       .  S
C250        C418   1.437       .  S
C251        C422   1.432       .  S
O252        V260   1.917       .  S
O252        C262   1.268       .  A
O253        V704   1.916       .  S
O253        C263   1.267       .  A
O254        V260   1.881       .  S
O254        C264   1.257       .  A
O255        V704   1.880       .  S
O255        C265   1.257       .  A
O256        V261   1.917       .  S
O256        C265   1.268       .  A
O257        V705   1.916   1_545  S
O257        C264   1.267       .  A
O258        V261   1.881       .  S
O258        C263   1.257       .  A
O259        V705   1.884   1_545  S
O259        C262   1.258       .  A
V260        O697   1.916   1_545  S
V260        O699   1.880   1_545  S
V260        V705   2.091   1_545  T
V261        O701   1.916       .  S
V261        O703   1.884       .  S
V261        V704   2.091       .  T
C262        C416   1.435       .  S
C263        C409   1.432       .  S
C264        C413   1.432       .  S
C265        C411   1.433       .  S
C266        C397   1.473       .  S
C266        C415   1.471       .  S
C266        C437   1.471       .  S
C266        C400   1.542       .  S
O267        V275   1.916   1_556  S
O267        C277   1.267       .  A
O268        C278   1.267       .  A
O269        V275   1.887   1_556  S
O269        C279   1.259       .  A
O270        C280   1.259       .  A
O271        V276   1.913       .  S
O271        C280   1.266       .  A
O272        C279   1.266       .  A
O273        V276   1.887       .  S
O273        C278   1.259       .  A
O274        C277   1.259       .  A
C277        C424   1.436       .  S
C278        C394   1.436       .  S
C279        C395   1.435       .  S
C280        C398   1.434       .  S
C281        C382   1.474       .  S
C281        C396   1.474       .  S
C281        C417   1.472       .  S
C281        C384   1.542       .  S
C282        C370   1.470       .  S
C282        C393   1.475       .  S
C282        C412   1.474       .  S
C282        C372   1.542       .  S
O283        V291   1.915       .  S
O283        C293   1.267       .  A
O284       V1179   1.916       .  S
O284        C294   1.267       .  A
O285        V291   1.882       .  S
O285        C295   1.257       .  A
O286       V1179   1.883       .  S
O286        C296   1.257       .  A
O287        V292   1.917       .  S
O287        C296   1.268       .  A
O288       V1180   1.916       .  S
O288        C295   1.268       .  A
O289        V292   1.881       .  S
O289        C294   1.257       .  A
O290       V1180   1.881       .  S
O290        C293   1.257       .  A
V291       O1172   1.916   1_455  S
V291       O1174   1.883   1_455  S
V291       V1180   2.091       .  T
V292       O1176   1.916       .  S
V292       O1178   1.881       .  S
V292       V1179   2.091       .  T
C293        C365   1.432       .  S
C294        C381   1.432       .  S
C295        C368   1.433       .  S
C296        C369   1.434       .  S
C297        C353   1.469       .  S
C297        C421   1.471       .  S
C297        C439   1.467       .  S
C297        C356   1.539       .  S
C298        C341   1.473       .  S
C298        C367   1.472       .  S
C298        C419   1.468       .  S
C298        C344   1.541       .  S
C299        C330   1.470       .  S
C299        C366   1.468       .  S
C299        C410   1.471       .  S
C299        C332   1.539       .  S
C300        C318   1.474       .  S
C300        C414   1.468       .  S
C300        C441   1.473       .  S
C300        C320   1.542       .  S
O301        V309   1.915       .  S
O301        C311   1.267       .  A
O302        C312   1.267       .  A
O303        V309   1.883       .  S
O303        C313   1.258       .  A
O304        C314   1.258       .  A
O305        V310   1.910       .  S
O305        C314   1.266       .  A
O306        C313   1.266       .  A
O307        V310   1.883       .  S
O307        C312   1.258       .  A
O308        C311   1.258       .  A
C311        C317   1.434       .  S
C312        C342   1.432       .  S
C313        C329   1.430       .  S
C314        C354   1.429       .  S
C315       C1433   1.564       .  S
C315       C1235   1.564   1_554  S
C315        C875   1.565   1_554  S
C316        C335   1.561       .  S
C316        C359   1.561       .  S
C316        C387   1.564       .  S
C316        C403   1.564       .  S
C317        C318   1.207       .  T
C319        C320   1.412       .  A
C319        C324   1.401       .  A
C319        H325   1.082       .  S
C320        C321   1.409       .  A
C321        C322   1.402       .  A
C321        H326   1.083       .  S
C322        C323   1.415       .  A
C322       H1215   1.079   1_545  S
C323       C1425   1.564       .  S
C323        C324   1.413       .  A
C324        H328   1.083       .  S
H327       C1210   1.079   1_565  S
C329        C330   1.205       .  T
C331        C332   1.412       .  A
C331        C336   1.399       .  A
C331        H337   1.080       .  S
C332        C333   1.408       .  A
C333        C334   1.400       .  A
C333        H338   1.084       .  S
C334        C335   1.416       .  A
C334        H339   1.078       .  S
C335        C336   1.412       .  A
C336        H340   1.084       .  S
C341        C342   1.206       .  T
C343        C344   1.412       .  A
C343        C348   1.401       .  A
C343        H349   1.081       .  S
C344        C345   1.409       .  A
C345        C346   1.402       .  A
C345        H350   1.083       .  S
C346        C347   1.416       .  A
C346       H1239   1.079       .  S
C347       C1203   1.564   1_556  S
C347        C348   1.413       .  A
C348        H352   1.083   1_556  S
H351       C1234   1.079       .  S
C353        C354   1.204       .  T
C355        C356   1.412       .  A
C355        C360   1.399       .  A
C355        H361   1.081       .  S
C356        C357   1.408       .  A
C357        C358   1.401       .  A
C357        H362   1.084       .  S
C358        C359   1.416       .  A
C358        H363   1.079       .  S
C359        C360   1.412       .  A
C360        H364   1.084       .  S
C365        C366   1.206       .  T
C367        C368   1.207       .  T
C369        C370   1.207       .  T
C371        C372   1.408       .  A
C371        C376   1.400       .  A
C371        H377   1.084       .  S
C372        C373   1.413       .  A
C373        C374   1.403       .  A
C373        H378   1.080       .  S
C374        C375   1.413       .  A
C374        H823   1.084       .  S
C375        C376   1.416       .  A
C376        H380   1.076       .  S
H379        C818   1.084   1_545  S
C381        C382   1.207       .  T
C383        C384   1.413       .  A
C383        C388   1.403       .  A
C383        H389   1.082       .  S
C384        C385   1.409       .  A
C385        C386   1.399       .  A
C385        H390   1.083       .  S
C386        C387   1.415       .  A
C386        H391   1.078       .  S
C387        C388   1.413       .  A
C388        H392   1.083       .  S
C393        C394   1.208       .  T
C395        C396   1.207       .  T
C397        C398   1.207       .  T
C399        C400   1.413       .  A
C399        C404   1.403       .  A
C399        H405   1.082       .  S
C400        C401   1.408       .  A
C401        C402   1.399       .  A
C401        H406   1.082       .  S
C402        C403   1.414       .  A
C402        H407   1.078       .  S
C403        C404   1.413       .  A
C404        H408   1.083       .  S
C409        C410   1.206       .  T
C411        C412   1.207       .  T
C413        C414   1.206       .  T
C415        C416   1.208       .  T
C417        C418   1.208       .  T
C419        C420   1.206       .  T
C421        C422   1.206       .  T
C423        C424   1.208       .  T
C425        C426   1.207       .  T
C427        C428   1.408       .  A
C427        C432   1.400       .  A
C427        H433   1.084       .  S
C428        C429   1.413       .  A
C429        C430   1.402       .  A
C429        H434   1.080       .  S
C430        C431   1.413       .  A
C430        H879   1.084   1_545  S
C431        C759   1.565   1_556  S
C431        C432   1.416       .  A
C432        H436   1.075       .  S
H435        C874   1.084       .  S
C437        C438   1.205       .  T
C439        C440   1.205       .  T
C441        C442   1.207       .  T
C443        C444   1.207       .  T
O445        V453   1.914       .  S
O445        C455   1.267       .  A
O446       V1341   1.914       .  S
O446        C456   1.267       .  A
O447        V453   1.884       .  S
O447        C457   1.258       .  A
O448       V1341   1.884       .  S
O448        C458   1.258       .  A
O449        V454   1.916       .  S
O449        C458   1.267       .  A
O450       V1342   1.916       .  S
O450        C457   1.267       .  A
O451        V454   1.879       .  S
O451        C456   1.257       .  A
O452       V1342   1.879       .  S
O452        C455   1.257       .  A
V453       O1334   1.914   1_455  S
V453       O1336   1.884   1_455  S
V453       V1342   2.091       .  T
V454       O1338   1.916       .  S
V454       O1340   1.879       .  S
V454       V1341   2.091       .  T
C455        C662   1.430       .  S
C456        C660   1.430       .  S
C457        C664   1.434       .  S
C458        C666   1.434       .  S
C459        C645   1.476       .  S
C459        C648   1.474       .  S
C459        C665   1.470       .  S
C459        C650   1.541       .  S
O460        V468   1.917   1_565  S
O460        C470   1.268       .  A
O461        C471   1.268       .  A
O462        V468   1.885   1_565  S
O462        C472   1.258       .  A
O463        C473   1.257       .  A
O464        V469   1.916       .  S
O464        C473   1.267       .  A
O465        C472   1.268       .  A
O466        V469   1.880       .  S
O466        C471   1.257       .  A
O467        C470   1.256       .  A
C470        C642   1.431       .  S
C471        C647   1.432       .  S
C472        C640   1.437       .  S
C473        C644   1.432       .  S
O474        V482   1.916       .  S
O474        C484   1.268       .  A
O475        C485   1.267       .  A
O476        V482   1.881       .  S
O476        C486   1.257       .  A
O477        C487   1.257       .  A
O478        V483   1.917       .  S
O478        C487   1.268       .  A
O479        C486   1.268       .  A
O480        V483   1.881       .  S
O480        C485   1.257       .  A
O481        C484   1.258       .  A
C484        C638   1.435       .  S
C485        C631   1.432       .  S
C486        C635   1.432       .  S
C487        C633   1.433       .  S
C488        C619   1.473       .  S
C488        C637   1.471       .  S
C488        C659   1.471       .  S
C488        C622   1.542       .  S
O489        V497   1.916       .  S
O489        C499   1.267       .  A
O490        V719   1.916       .  S
O490        C500   1.267       .  A
O491        V497   1.887       .  S
O491        C501   1.259       .  A
O492        V719   1.886       .  S
O492        C502   1.259       .  A
O493        V498   1.913       .  S
O493        C502   1.266       .  A
O494        V720   1.913       .  S
O494        C501   1.266       .  A
O495        V498   1.886       .  S
O495        C500   1.259       .  A
O496        V720   1.887       .  S
O496        C499   1.259       .  A
V497        O712   1.915       .  S
V497        O714   1.886       .  S
V497        V720   2.090       .  T
V498        O716   1.913   1_554  S
V498        O718   1.887   1_554  S
V498        V719   2.090       .  T
C499        C646   1.436       .  S
C500        C616   1.436       .  S
C501        C617   1.435       .  S
C502        C620   1.434       .  S
C503        C604   1.474       .  S
C503        C618   1.474       .  S
C503        C639   1.472       .  S
C503        C606   1.542       .  S
C504        C592   1.470       .  S
C504        C615   1.475       .  S
C504        C634   1.474       .  S
C504        C594   1.542       .  S
O505        V513   1.915       .  S
O505        C515   1.267       .  A
O506       V1401   1.916       .  S
O506        C516   1.267       .  A
O507        V513   1.882       .  S
O507        C517   1.257       .  A
O508       V1401   1.883       .  S
O508        C518   1.257       .  A
O509        V514   1.917       .  S
O509        C518   1.268       .  A
O510       V1402   1.916       .  S
O510        C517   1.268       .  A
O511        V514   1.881       .  S
O511        C516   1.257       .  A
O512       V1402   1.881       .  S
O512        C515   1.257       .  A
V513       O1394   1.916   1_455  S
V513       O1396   1.883   1_455  S
V513       V1402   2.091       .  T
V514       O1398   1.916       .  S
V514       O1400   1.881       .  S
V514       V1401   2.091       .  T
C515        C587   1.432       .  S
C516        C603   1.432       .  S
C517        C590   1.433       .  S
C518        C591   1.434       .  S
C519        C575   1.470       .  S
C519        C643   1.471       .  S
C519        C661   1.467       .  S
C519        C578   1.539       .  S
C520        C563   1.473       .  S
C520        C589   1.472       .  S
C520        C641   1.468       .  S
C520        C566   1.541       .  S
C521        C552   1.470       .  S
C521        C588   1.468       .  S
C521        C632   1.471       .  S
C521        C554   1.539       .  S
C522        C540   1.474       .  S
C522        C636   1.469       .  S
C522        C663   1.473       .  S
C522        C542   1.542       .  S
O523        V531   1.914   1_554  S
O523        C533   1.267       .  A
O524        V753   1.914       .  S
O524        C534   1.267       .  A
O525        V531   1.883   1_554  S
O525        C535   1.258       .  A
O526        V753   1.882       .  S
O526        C536   1.258       .  A
O527        V532   1.910       .  S
O527        C536   1.266       .  A
O528        V754   1.910   1_554  S
O528        C535   1.266       .  A
O529        V532   1.883       .  S
O529        C534   1.258       .  A
O530        V754   1.884   1_554  S
O530        C533   1.258       .  A
V531        O746   1.914       .  S
V531        O748   1.882       .  S
V531        V754   2.091       .  T
V532        O750   1.910       .  S
V532        O752   1.884       .  S
V532        V753   2.091       .  T
C533        C539   1.434       .  S
C534        C564   1.432       .  S
C535        C551   1.429       .  S
C536        C576   1.429       .  S
C537       C1211   1.564       .  S
C537       C1457   1.564   1_545  S
C537        C819   1.566   1_545  S
C538        C557   1.561       .  S
C538        C581   1.561       .  S
C538        C609   1.564       .  S
C538        C625   1.564       .  S
C539        C540   1.207       .  T
C541        C542   1.412       .  A
C541        C546   1.401       .  A
C541        H547   1.082       .  S
C542        C543   1.409       .  A
C543        C544   1.402       .  A
C543        H548   1.083       .  S
C544        C545   1.415       .  A
C544       H1437   1.079       .  S
C545       C1203   1.564       .  S
C545        C546   1.413       .  A
C546        H550   1.083   1_554  S
H549       C1432   1.079       .  S
C551        C552   1.205       .  T
C553        C554   1.412       .  A
C553        C558   1.399       .  A
C553        H559   1.080       .  S
C554        C555   1.408       .  A
C555        C556   1.400       .  A
C555        H560   1.084       .  S
C556        C557   1.416       .  A
C556        H561   1.078       .  S
C557        C558   1.412       .  A
C558        H562   1.084       .  S
C563        C564   1.206       .  T
C565        C566   1.412       .  A
C565        C570   1.401       .  A
C565        H571   1.081       .  S
C566        C567   1.409       .  A
C567        C568   1.402       .  A
C567        H572   1.083       .  S
C568        C569   1.416       .  A
C568       H1461   1.079   1_565  S
C569       C1425   1.564   1_565  S
C569        C570   1.413       .  A
C570        H574   1.083       .  S
H573       C1456   1.079   1_545  S
C575        C576   1.204       .  T
C577        C578   1.412       .  A
C577        C582   1.399       .  A
C577        H583   1.081       .  S
C578        C579   1.408       .  A
C579        C580   1.401       .  A
C579        H584   1.084       .  S
C580        C581   1.416       .  A
C580        H585   1.079       .  S
C581        C582   1.412       .  A
C582        H586   1.084       .  S
C587        C588   1.206       .  T
C589        C590   1.207       .  T
C591        C592   1.207       .  T
C593        C594   1.408       .  A
C593        C598   1.400       .  A
C593        H599   1.084       .  S
C594        C595   1.413       .  A
C595        C596   1.403       .  A
C595        H600   1.080       .  S
C596        C597   1.413       .  A
C597        C759   1.566   1_565  S
C597        C598   1.416       .  A
C598        H602   1.076       .  S
C603        C604   1.207       .  T
C605        C606   1.413       .  A
C605        C610   1.402       .  A
C605        H611   1.082       .  S
C606        C607   1.409       .  A
C607        C608   1.399       .  A
C607        H612   1.083       .  S
C608        C609   1.415       .  A
C608        H613   1.078       .  S
C609        C610   1.413       .  A
C610        H614   1.083       .  S
C615        C616   1.208       .  T
C617        C618   1.207       .  T
C619        C620   1.207       .  T
C621        C622   1.413       .  A
C621        C626   1.403       .  A
C621        H627   1.082       .  S
C622        C623   1.408       .  A
C623        C624   1.399       .  A
C623        H628   1.082       .  S
C624        C625   1.414       .  A
C624        H629   1.078       .  S
C625        C626   1.413       .  A
C626        H630   1.083       .  S
C631        C632   1.206       .  T
C633        C634   1.207       .  T
C635        C636   1.206       .  T
C637        C638   1.208       .  T
C639        C640   1.208       .  T
C641        C642   1.206       .  T
C643        C644   1.206       .  T
C645        C646   1.208       .  T
C647        C648   1.207       .  T
C649        C650   1.408       .  A
C649        C654   1.400       .  A
C649        H655   1.084       .  S
C650        C651   1.413       .  A
C651        C652   1.402       .  A
C651        H656   1.080       .  S
C652        C653   1.413       .  A
C653        C654   1.416       .  A
C654        H658   1.075       .  S
C659        C660   1.205       .  T
C661        C662   1.205       .  T
C663        C664   1.207       .  T
C665        C666   1.207       .  T
O667        V675   1.914       .  S
O667        C677   1.267       .  A
O668       V1563   1.915       .  S
O668        C678   1.267       .  A
O669        V675   1.884       .  S
O669        C679   1.258       .  A
O670       V1563   1.884       .  S
O670        C680   1.258       .  A
O671        V676   1.916       .  S
O671        C680   1.267       .  A
O672       V1564   1.916       .  S
O672        C679   1.267       .  A
O673        V676   1.879       .  S
O673        C678   1.257       .  A
O674       V1564   1.879       .  S
O674        C677   1.257       .  A
V675       O1556   1.915   1_455  S
V675       O1558   1.884   1_455  S
V675       V1564   2.091       .  T
V676       O1560   1.916       .  S
V676       O1562   1.879       .  S
V676       V1563   2.091       .  T
C677        C884   1.430       .  S
C678        C882   1.430       .  S
C679        C886   1.434       .  S
C680        C888   1.434       .  S
C681        C867   1.476       .  S
C681        C870   1.474       .  S
C681        C887   1.470       .  S
C681        C872   1.541       .  S
O682        V690   1.917   1_565  S
O682        C692   1.268       .  A
O683        C693   1.268       .  A
O684        V690   1.885   1_565  S
O684        C694   1.258       .  A
O685        C695   1.257       .  A
O686        V691   1.916       .  S
O686        C695   1.267       .  A
O687        C694   1.268       .  A
O688        V691   1.880       .  S
O688        C693   1.257       .  A
O689        C692   1.256       .  A
C692        C864   1.431       .  S
C693        C869   1.432       .  S
C694        C862   1.437       .  S
C695        C866   1.432       .  S
O696        V704   1.917       .  S
O696        C706   1.268       .  A
O697        C707   1.267       .  A
O698        V704   1.881       .  S
O698        C708   1.257       .  A
O699        C709   1.257       .  A
O700        V705   1.917       .  S
O700        C709   1.268       .  A
O701        C708   1.267       .  A
O702        V705   1.881       .  S
O702        C707   1.257       .  A
O703        C706   1.258       .  A
C706        C860   1.435       .  S
C707        C853   1.432       .  S
C708        C857   1.432       .  S
C709        C855   1.433       .  S
C710        C841   1.473       .  S
C710        C859   1.471       .  S
C710        C881   1.471       .  S
C710        C844   1.542       .  S
O711        V719   1.916   1_556  S
O711        C721   1.267       .  A
O712        C722   1.267       .  A
O713        V719   1.887   1_556  S
O713        C723   1.259       .  A
O714        C724   1.259       .  A
O715        V720   1.913       .  S
O715        C724   1.266       .  A
O716        C723   1.266       .  A
O717        V720   1.887       .  S
O717        C722   1.259       .  A
O718        C721   1.259       .  A
C721        C868   1.436       .  S
C722        C838   1.436       .  S
C723        C839   1.435       .  S
C724        C842   1.434       .  S
C725        C826   1.474       .  S
C725        C840   1.474       .  S
C725        C861   1.472       .  S
C725        C828   1.542       .  S
C726        C814   1.470       .  S
C726        C837   1.475       .  S
C726        C856   1.474       .  S
C726        C816   1.542       .  S
O727        V735   1.915       .  S
O727        C737   1.267       .  A
O728       V1623   1.916       .  S
O728        C738   1.267       .  A
O729        V735   1.882       .  S
O729        C739   1.257       .  A
O730       V1623   1.883       .  S
O730        C740   1.257       .  A
O731        V736   1.917       .  S
O731        C740   1.268       .  A
O732       V1624   1.916       .  S
O732        C739   1.268       .  A
O733        V736   1.881       .  S
O733        C738   1.257       .  A
O734       V1624   1.881       .  S
O734        C737   1.257       .  A
V735       O1616   1.916   1_455  S
V735       O1618   1.883   1_455  S
V735       V1624   2.091       .  T
V736       O1620   1.916       .  S
V736       O1622   1.881       .  S
V736       V1623   2.091       .  T
C737        C809   1.432       .  S
C738        C825   1.432       .  S
C739        C812   1.433       .  S
C740        C813   1.434       .  S
C741        C797   1.469       .  S
C741        C865   1.471       .  S
C741        C883   1.467       .  S
C741        C800   1.539       .  S
C742        C785   1.473       .  S
C742        C811   1.472       .  S
C742        C863   1.468       .  S
C742        C788   1.541       .  S
C743        C774   1.470       .  S
C743        C810   1.468       .  S
C743        C854   1.471       .  S
C743        C776   1.539       .  S
C744        C762   1.474       .  S
C744        C858   1.468       .  S
C744        C885   1.473       .  S
C744        C764   1.542       .  S
O745        V753   1.915       .  S
O745        C755   1.267       .  A
O746        C756   1.267       .  A
O747        V753   1.883       .  S
O747        C757   1.258       .  A
O748        C758   1.258       .  A
O749        V754   1.910       .  S
O749        C758   1.266       .  A
O750        C757   1.266       .  A
O751        V754   1.883       .  S
O751        C756   1.258       .  A
O752        C755   1.258       .  A
C755        C761   1.434       .  S
C756        C786   1.432       .  S
C757        C773   1.430       .  S
C758        C798   1.429       .  S
C759        C989   1.564       .  S
C759       C1679   1.564   1_544  S
C760        C779   1.561       .  S
C760        C803   1.561       .  S
C760        C831   1.564       .  S
C760        C847   1.564       .  S
C761        C762   1.207       .  T
C763        C764   1.412       .  A
C763        C768   1.401       .  A
C763        H769   1.082       .  S
C764        C765   1.409       .  A
C765        C766   1.402       .  A
C765        H770   1.083       .  S
C766        C767   1.415       .  A
C766       H1659   1.079       .  S
C767        C981   1.564       .  S
C767        C768   1.413       .  A
C768        H772   1.083       .  S
H771       C1654   1.079       .  S
C773        C774   1.205       .  T
C775        C776   1.412       .  A
C775        C780   1.399       .  A
C775        H781   1.080       .  S
C776        C777   1.408       .  A
C777        C778   1.400       .  A
C777        H782   1.084       .  S
C778        C779   1.416       .  A
C778        H783   1.078       .  S
C779        C780   1.412       .  A
C780        H784   1.084       .  S
C785        C786   1.206       .  T
C787        C788   1.412       .  A
C787        C792   1.401       .  A
C787        H793   1.081       .  S
C788        C789   1.409       .  A
C789        C790   1.402       .  A
C789        H794   1.083       .  S
C790        C791   1.416       .  A
C790       H1683   1.079   1_565  S
C791       C1647   1.564   1_566  S
C791        C792   1.413       .  A
C792        H796   1.083   1_556  S
H795       C1678   1.079   1_545  S
C797        C798   1.204       .  T
C799        C800   1.412       .  A
C799        C804   1.399       .  A
C799        H805   1.081       .  S
C800        C801   1.408       .  A
C801        C802   1.401       .  A
C801        H806   1.084       .  S
C802        C803   1.416       .  A
C802        H807   1.079       .  S
C803        C804   1.412       .  A
C804        H808   1.084       .  S
C809        C810   1.206       .  T
C811        C812   1.207       .  T
C813        C814   1.207       .  T
C815        C816   1.408       .  A
C815        C820   1.400       .  A
C815        H821   1.084       .  S
C816        C817   1.413       .  A
C817        C818   1.403       .  A
C817        H822   1.080       .  S
C818        C819   1.413       .  A
C819        C820   1.416       .  A
C820        H824   1.076       .  S
C825        C826   1.207       .  T
C827        C828   1.413       .  A
C827        C832   1.403       .  A
C827        H833   1.082       .  S
C828        C829   1.409       .  A
C829        C830   1.399       .  A
C829        H834   1.083       .  S
C830        C831   1.415       .  A
C830        H835   1.078       .  S
C831        C832   1.413       .  A
C832        H836   1.083       .  S
C837        C838   1.208       .  T
C839        C840   1.207       .  T
C841        C842   1.207       .  T
C843        C844   1.413       .  A
C843        C848   1.403       .  A
C843        H849   1.082       .  S
C844        C845   1.408       .  A
C845        C846   1.399       .  A
C845        H850   1.082       .  S
C846        C847   1.414       .  A
C846        H851   1.078       .  S
C847        C848   1.413       .  A
C848        H852   1.083       .  S
C853        C854   1.206       .  T
C855        C856   1.207       .  T
C857        C858   1.206       .  T
C859        C860   1.208       .  T
C861        C862   1.208       .  T
C863        C864   1.206       .  T
C865        C866   1.206       .  T
C867        C868   1.208       .  T
C869        C870   1.207       .  T
C871        C872   1.408       .  A
C871        C876   1.400       .  A
C871        H877   1.084       .  S
C872        C873   1.413       .  A
C873        C874   1.402       .  A
C873        H878   1.080       .  S
C874        C875   1.413       .  A
C875        C876   1.416       .  A
C876        H880   1.075       .  S
C881        C882   1.205       .  T
C883        C884   1.205       .  T
C885        C886   1.207       .  T
C887        C888   1.207       .  T
O889        V897   1.914       .  S
O889        C899   1.267       .  A
O890        C900   1.267       .  A
O891        V897   1.884       .  S
O891        C901   1.258       .  A
O892        C902   1.258       .  A
O893        V898   1.916   1_655  S
O893        C902   1.267       .  A
O894        C901   1.267       .  A
O895        V898   1.879   1_655  S
O895        C900   1.257       .  A
O896        C899   1.257       .  A
C899       C1106   1.430       .  S
C900       C1104   1.430       .  S
C901       C1108   1.434       .  S
C902       C1110   1.434       .  S
C903       C1089   1.476       .  S
C903       C1092   1.474       .  S
C903       C1109   1.470       .  S
C903       C1094   1.541       .  S
O904        V912   1.917       .  S
O904        C914   1.268       .  A
O905       V1356   1.917       .  S
O905        C915   1.268       .  A
O906        V912   1.885       .  S
O906        C916   1.258       .  A
O907       V1356   1.881       .  S
O907        C917   1.257       .  A
O908        V913   1.916   1_545  S
O908        C917   1.267       .  A
O909       V1357   1.917       .  S
O909        C916   1.268       .  A
O910        V913   1.880   1_545  S
O910        C915   1.257       .  A
O911       V1357   1.879       .  S
O911        C914   1.256       .  A
V912       O1349   1.917       .  S
V912       O1351   1.881       .  S
V912       V1357   2.091       .  T
V913       O1353   1.917       .  S
V913       O1355   1.879       .  S
V913       V1356   2.091   1_565  T
C914       C1086   1.431       .  S
C915       C1091   1.432       .  S
C916       C1084   1.437       .  S
C917       C1088   1.432       .  S
O918        V926   1.916       .  S
O918        C928   1.268       .  A
O919       V1370   1.916       .  S
O919        C929   1.267       .  A
O920        V926   1.881       .  S
O920        C930   1.257       .  A
O921       V1370   1.881       .  S
O921        C931   1.257       .  A
O922        V927   1.917       .  S
O922        C931   1.268       .  A
O923       V1371   1.916   1_545  S
O923        C930   1.268       .  A
O924        V927   1.881       .  S
O924        C929   1.257       .  A
O925       V1371   1.884   1_545  S
O925        C928   1.258       .  A
V926       O1363   1.916   1_545  S
V926       O1365   1.881   1_545  S
V926       V1371   2.091   1_545  T
V927       O1367   1.916       .  S
V927       O1369   1.884       .  S
V927       V1370   2.091       .  T
C928       C1082   1.435       .  S
C929       C1075   1.432       .  S
C930       C1079   1.432       .  S
C931       C1077   1.433       .  S
C932       C1063   1.473       .  S
C932       C1081   1.471       .  S
C932       C1103   1.471       .  S
C932       C1066   1.542       .  S
O933        V941   1.916       .  S
O933        C943   1.267       .  A
O934       V1163   1.916       .  S
O934        C944   1.267       .  A
O935        V941   1.887       .  S
O935        C945   1.259       .  A
O936       V1163   1.886       .  S
O936        C946   1.259       .  A
O937        V942   1.913       .  S
O937        C946   1.266       .  A
O938       V1164   1.913       .  S
O938        C945   1.266       .  A
O939        V942   1.886       .  S
O939        C944   1.259       .  A
O940       V1164   1.887       .  S
O940        C943   1.259       .  A
V941       O1156   1.915       .  S
V941       O1158   1.886       .  S
V941       V1164   2.090       .  T
V942       O1160   1.913   1_554  S
V942       O1162   1.887   1_554  S
V942       V1163   2.090       .  T
C943       C1090   1.436       .  S
C944       C1060   1.436       .  S
C945       C1061   1.435       .  S
C946       C1064   1.434       .  S
C947       C1048   1.474       .  S
C947       C1062   1.474       .  S
C947       C1083   1.472       .  S
C947       C1050   1.542       .  S
C948       C1036   1.470       .  S
C948       C1059   1.475       .  S
C948       C1078   1.474       .  S
C948       C1038   1.542       .  S
O949        V957   1.915       .  S
O949        C959   1.267       .  A
O950        C960   1.267       .  A
O951        V957   1.882       .  S
O951        C961   1.257       .  A
O952        C962   1.257       .  A
O953        V958   1.917   1_655  S
O953        C962   1.268       .  A
O954        C961   1.268       .  A
O955        V958   1.881   1_655  S
O955        C960   1.257       .  A
O956        C959   1.257       .  A
C959       C1031   1.432       .  S
C960       C1047   1.432       .  S
C961       C1034   1.433       .  S
C962       C1035   1.434       .  S
C963       C1019   1.470       .  S
C963       C1087   1.471       .  S
C963       C1105   1.467       .  S
C963       C1022   1.539       .  S
C964       C1007   1.473       .  S
C964       C1033   1.472       .  S
C964       C1085   1.468       .  S
C964       C1010   1.541       .  S
C965        C996   1.470       .  S
C965       C1032   1.468       .  S
C965       C1076   1.471       .  S
C965        C998   1.539       .  S
C966        C984   1.474       .  S
C966       C1080   1.469       .  S
C966       C1107   1.473       .  S
C966        C986   1.542       .  S
O967        V975   1.914   1_554  S
O967        C977   1.267       .  A
O968       V1197   1.914       .  S
O968        C978   1.267       .  A
O969        V975   1.883   1_554  S
O969        C979   1.258       .  A
O970       V1197   1.882       .  S
O970        C980   1.258       .  A
O971        V976   1.910       .  S
O971        C980   1.266       .  A
O972       V1198   1.910   1_554  S
O972        C979   1.266       .  A
O973        V976   1.883       .  S
O973        C978   1.258       .  A
O974       V1198   1.884   1_554  S
O974        C977   1.258       .  A
V975       O1190   1.914       .  S
V975       O1192   1.882       .  S
V975       V1198   2.091       .  T
V976       O1194   1.910       .  S
V976       O1196   1.884       .  S
V976       V1197   2.091       .  T
C977        C983   1.434       .  S
C978       C1008   1.432       .  S
C979        C995   1.429       .  S
C980       C1020   1.429       .  S
C981       C1263   1.566   1_455  S
C981       C1541   1.565   1_455  S
C982       C1001   1.561       .  S
C982       C1025   1.561       .  S
C982       C1053   1.564       .  S
C982       C1069   1.564       .  S
C983        C984   1.207       .  T
C985        C986   1.412       .  A
C985        C990   1.401       .  A
C985        H991   1.082       .  S
C986        C987   1.409       .  A
C987        C988   1.402       .  A
C987        H992   1.083       .  S
C988        C989   1.415       .  A
C989        C990   1.413       .  A
C990        H994   1.083   1_554  S
C995        C996   1.205       .  T
C997        C998   1.412       .  A
C997       C1002   1.399       .  A
C997       H1003   1.080       .  S
C998        C999   1.408       .  A
C999       C1000   1.400       .  A
C999       H1004   1.084       .  S
C1000      C1001   1.416       .  A
C1000      H1005   1.078       .  S
C1001      C1002   1.412       .  A
C1002      H1006   1.084       .  S
C1007      C1008   1.206       .  T
C1009      C1010   1.412       .  A
C1009      C1014   1.401       .  A
C1009      H1015   1.081       .  S
C1010      C1011   1.409       .  A
C1011      C1012   1.402       .  A
C1011      H1016   1.083       .  S
C1012      C1013   1.416       .  A
C1013      C1014   1.413       .  A
C1014      H1018   1.083       .  S
C1019      C1020   1.204       .  T
C1021      C1022   1.412       .  A
C1021      C1026   1.399       .  A
C1021      H1027   1.081       .  S
C1022      C1023   1.408       .  A
C1023      C1024   1.401       .  A
C1023      H1028   1.084       .  S
C1024      C1025   1.416       .  A
C1024      H1029   1.079       .  S
C1025      C1026   1.412       .  A
C1026      H1030   1.084       .  S
C1031      C1032   1.206       .  T
C1033      C1034   1.207       .  T
C1035      C1036   1.207       .  T
C1037      C1038   1.408       .  A
C1037      C1042   1.400       .  A
C1037      H1043   1.084       .  S
C1038      C1039   1.413       .  A
C1039      C1040   1.403       .  A
C1039      H1044   1.080       .  S
C1040      C1041   1.413       .  A
C1040      H1489   1.084       .  S
C1041      C1203   1.566   1_655  S
C1041      C1042   1.416       .  A
C1042      H1046   1.076       .  S
H1045      C1484   1.084   1_545  S
C1047      C1048   1.207       .  T
C1049      C1050   1.413       .  A
C1049      C1054   1.402       .  A
C1049      H1055   1.082       .  S
C1050      C1051   1.409       .  A
C1051      C1052   1.399       .  A
C1051      H1056   1.083       .  S
C1052      C1053   1.415       .  A
C1052      H1057   1.078       .  S
C1053      C1054   1.413       .  A
C1054      H1058   1.083       .  S
C1059      C1060   1.208       .  T
C1061      C1062   1.207       .  T
C1063      C1064   1.207       .  T
C1065      C1066   1.413       .  A
C1065      C1070   1.403       .  A
C1065      H1071   1.082       .  S
C1066      C1067   1.408       .  A
C1067      C1068   1.399       .  A
C1067      H1072   1.082       .  S
C1068      C1069   1.414       .  A
C1068      H1073   1.078       .  S
C1069      C1070   1.413       .  A
C1070      H1074   1.083       .  S
C1075      C1076   1.206       .  T
C1077      C1078   1.207       .  T
C1079      C1080   1.206       .  T
C1081      C1082   1.208       .  T
C1083      C1084   1.208       .  T
C1085      C1086   1.206       .  T
C1087      C1088   1.206       .  T
C1089      C1090   1.208       .  T
C1091      C1092   1.207       .  T
C1093      C1094   1.408       .  A
C1093      C1098   1.400       .  A
C1093      H1099   1.084       .  S
C1094      C1095   1.413       .  A
C1095      C1096   1.402       .  A
C1095      H1100   1.080       .  S
C1096      C1097   1.413       .  A
C1096      H1545   1.084   1_545  S
C1097      C1425   1.565   1_655  S
C1097      C1098   1.416       .  A
C1098      H1102   1.075       .  S
H1101      C1540   1.084       .  S
C1103      C1104   1.205       .  T
C1105      C1106   1.205       .  T
C1107      C1108   1.207       .  T
C1109      C1110   1.207       .  T
O1111      V1119   1.914       .  S
O1111      C1121   1.267       .  A
O1112      C1122   1.267       .  A
O1113      V1119   1.884       .  S
O1113      C1123   1.258       .  A
O1114      C1124   1.258       .  A
O1115      V1120   1.916   1_655  S
O1115      C1124   1.267       .  A
O1116      C1123   1.267       .  A
O1117      V1120   1.879   1_655  S
O1117      C1122   1.257       .  A
O1118      C1121   1.257       .  A
C1121      C1328   1.430       .  S
C1122      C1326   1.430       .  S
C1123      C1330   1.434       .  S
C1124      C1332   1.434       .  S
C1125      C1311   1.476       .  S
C1125      C1314   1.474       .  S
C1125      C1331   1.470       .  S
C1125      C1316   1.541       .  S
O1126      V1134   1.917       .  S
O1126      C1136   1.268       .  A
O1127      V1578   1.916       .  S
O1127      C1137   1.268       .  A
O1128      V1134   1.885       .  S
O1128      C1138   1.258       .  A
O1129      V1578   1.881       .  S
O1129      C1139   1.257       .  A
O1130      V1135   1.916   1_545  S
O1130      C1139   1.267       .  A
O1131      V1579   1.917       .  S
O1131      C1138   1.268       .  A
O1132      V1135   1.880   1_545  S
O1132      C1137   1.257       .  A
O1133      V1579   1.879       .  S
O1133      C1136   1.256       .  A
V1134      O1571   1.916       .  S
V1134      O1573   1.881       .  S
V1134      V1579   2.091       .  T
V1135      O1575   1.917       .  S
V1135      O1577   1.879       .  S
V1135      V1578   2.091   1_565  T
C1136      C1308   1.431       .  S
C1137      C1313   1.432       .  S
C1138      C1306   1.437       .  S
C1139      C1310   1.432       .  S
O1140      V1148   1.917       .  S
O1140      C1150   1.268       .  A
O1141      V1592   1.916       .  S
O1141      C1151   1.267       .  A
O1142      V1148   1.881       .  S
O1142      C1152   1.257       .  A
O1143      V1592   1.880       .  S
O1143      C1153   1.257       .  A
O1144      V1149   1.917       .  S
O1144      C1153   1.268       .  A
O1145      V1593   1.916   1_545  S
O1145      C1152   1.267       .  A
O1146      V1149   1.881       .  S
O1146      C1151   1.257       .  A
O1147      V1593   1.884   1_545  S
O1147      C1150   1.258       .  A
V1148      O1585   1.916   1_545  S
V1148      O1587   1.880   1_545  S
V1148      V1593   2.091   1_545  T
V1149      O1589   1.916       .  S
V1149      O1591   1.884       .  S
V1149      V1592   2.091       .  T
C1150      C1304   1.435       .  S
C1151      C1297   1.432       .  S
C1152      C1301   1.432       .  S
C1153      C1299   1.433       .  S
C1154      C1285   1.473       .  S
C1154      C1303   1.471       .  S
C1154      C1325   1.471       .  S
C1154      C1288   1.542       .  S
O1155      V1163   1.916   1_556  S
O1155      C1165   1.267       .  A
O1156      C1166   1.267       .  A
O1157      V1163   1.887   1_556  S
O1157      C1167   1.259       .  A
O1158      C1168   1.259       .  A
O1159      V1164   1.913       .  S
O1159      C1168   1.266       .  A
O1160      C1167   1.266       .  A
O1161      V1164   1.887       .  S
O1161      C1166   1.259       .  A
O1162      C1165   1.259       .  A
C1165      C1312   1.436       .  S
C1166      C1282   1.436       .  S
C1167      C1283   1.435       .  S
C1168      C1286   1.434       .  S
C1169      C1270   1.474       .  S
C1169      C1284   1.474       .  S
C1169      C1305   1.472       .  S
C1169      C1272   1.542       .  S
C1170      C1258   1.470       .  S
C1170      C1281   1.475       .  S
C1170      C1300   1.474       .  S
C1170      C1260   1.542       .  S
O1171      V1179   1.915       .  S
O1171      C1181   1.267       .  A
O1172      C1182   1.267       .  A
O1173      V1179   1.882       .  S
O1173      C1183   1.257       .  A
O1174      C1184   1.257       .  A
O1175      V1180   1.917   1_655  S
O1175      C1184   1.268       .  A
O1176      C1183   1.268       .  A
O1177      V1180   1.881   1_655  S
O1177      C1182   1.257       .  A
O1178      C1181   1.257       .  A
C1181      C1253   1.432       .  S
C1182      C1269   1.432       .  S
C1183      C1256   1.433       .  S
C1184      C1257   1.434       .  S
C1185      C1241   1.469       .  S
C1185      C1309   1.471       .  S
C1185      C1327   1.467       .  S
C1185      C1244   1.539       .  S
C1186      C1229   1.473       .  S
C1186      C1255   1.472       .  S
C1186      C1307   1.468       .  S
C1186      C1232   1.541       .  S
C1187      C1218   1.470       .  S
C1187      C1254   1.468       .  S
C1187      C1298   1.471       .  S
C1187      C1220   1.539       .  S
C1188      C1206   1.474       .  S
C1188      C1302   1.468       .  S
C1188      C1329   1.473       .  S
C1188      C1208   1.542       .  S
O1189      V1197   1.915       .  S
O1189      C1199   1.267       .  A
O1190      C1200   1.267       .  A
O1191      V1197   1.883       .  S
O1191      C1201   1.258       .  A
O1192      C1202   1.258       .  A
O1193      V1198   1.910       .  S
O1193      C1202   1.266       .  A
O1194      C1201   1.266       .  A
O1195      V1198   1.883       .  S
O1195      C1200   1.258       .  A
O1196      C1199   1.258       .  A
C1199      C1205   1.434       .  S
C1200      C1230   1.432       .  S
C1201      C1217   1.430       .  S
C1202      C1242   1.429       .  S
C1203      C1763   1.565   1_454  S
C1204      C1223   1.561       .  S
C1204      C1247   1.561       .  S
C1204      C1275   1.564       .  S
C1204      C1291   1.564       .  S
C1205      C1206   1.207       .  T
C1207      C1208   1.412       .  A
C1207      C1212   1.401       .  A
C1207      H1213   1.082       .  S
C1208      C1209   1.409       .  A
C1209      C1210   1.402       .  A
C1209      H1214   1.083       .  S
C1210      C1211   1.415       .  A
C1211      C1212   1.413       .  A
C1212      H1216   1.083       .  S
C1217      C1218   1.205       .  T
C1219      C1220   1.412       .  A
C1219      C1224   1.399       .  A
C1219      H1225   1.080       .  S
C1220      C1221   1.408       .  A
C1221      C1222   1.400       .  A
C1221      H1226   1.084       .  S
C1222      C1223   1.416       .  A
C1222      H1227   1.078       .  S
C1223      C1224   1.412       .  A
C1224      H1228   1.084       .  S
C1229      C1230   1.206       .  T
C1231      C1232   1.412       .  A
C1231      C1236   1.401       .  A
C1231      H1237   1.081       .  S
C1232      C1233   1.409       .  A
C1233      C1234   1.402       .  A
C1233      H1238   1.083       .  S
C1234      C1235   1.416       .  A
C1235      C1236   1.413       .  A
C1236      H1240   1.083   1_556  S
C1241      C1242   1.204       .  T
C1243      C1244   1.412       .  A
C1243      C1248   1.399       .  A
C1243      H1249   1.081       .  S
C1244      C1245   1.408       .  A
C1245      C1246   1.401       .  A
C1245      H1250   1.084       .  S
C1246      C1247   1.416       .  A
C1246      H1251   1.079       .  S
C1247      C1248   1.412       .  A
C1248      H1252   1.084       .  S
C1253      C1254   1.206       .  T
C1255      C1256   1.207       .  T
C1257      C1258   1.207       .  T
C1259      C1260   1.408       .  A
C1259      C1264   1.400       .  A
C1259      H1265   1.084       .  S
C1260      C1261   1.413       .  A
C1261      C1262   1.403       .  A
C1261      H1266   1.080       .  S
C1262      C1263   1.413       .  A
C1262      H1711   1.084       .  S
C1263      C1264   1.416       .  A
C1264      H1268   1.076       .  S
H1267      C1706   1.084   1_545  S
C1269      C1270   1.207       .  T
C1271      C1272   1.413       .  A
C1271      C1276   1.403       .  A
C1271      H1277   1.082       .  S
C1272      C1273   1.409       .  A
C1273      C1274   1.399       .  A
C1273      H1278   1.083       .  S
C1274      C1275   1.415       .  A
C1274      H1279   1.078       .  S
C1275      C1276   1.413       .  A
C1276      H1280   1.083       .  S
C1281      C1282   1.208       .  T
C1283      C1284   1.207       .  T
C1285      C1286   1.207       .  T
C1287      C1288   1.413       .  A
C1287      C1292   1.403       .  A
C1287      H1293   1.082       .  S
C1288      C1289   1.408       .  A
C1289      C1290   1.399       .  A
C1289      H1294   1.082       .  S
C1290      C1291   1.414       .  A
C1290      H1295   1.078       .  S
C1291      C1292   1.413       .  A
C1292      H1296   1.083       .  S
C1297      C1298   1.206       .  T
C1299      C1300   1.207       .  T
C1301      C1302   1.206       .  T
C1303      C1304   1.208       .  T
C1305      C1306   1.208       .  T
C1307      C1308   1.206       .  T
C1309      C1310   1.206       .  T
C1311      C1312   1.208       .  T
C1313      C1314   1.207       .  T
C1315      C1316   1.408       .  A
C1315      C1320   1.400       .  A
C1315      H1321   1.084       .  S
C1316      C1317   1.413       .  A
C1317      C1318   1.402       .  A
C1317      H1322   1.080       .  S
C1318      C1319   1.413       .  A
C1318      H1767   1.084   1_545  S
C1319      C1647   1.565   1_656  S
C1319      C1320   1.416       .  A
C1320      H1324   1.075       .  S
H1323      C1762   1.084       .  S
C1325      C1326   1.205       .  T
C1327      C1328   1.205       .  T
C1329      C1330   1.207       .  T
C1331      C1332   1.207       .  T
O1333      V1341   1.914       .  S
O1333      C1343   1.267       .  A
O1334      C1344   1.267       .  A
O1335      V1341   1.884       .  S
O1335      C1345   1.258       .  A
O1336      C1346   1.258       .  A
O1337      V1342   1.916   1_655  S
O1337      C1346   1.267       .  A
O1338      C1345   1.267       .  A
O1339      V1342   1.879   1_655  S
O1339      C1344   1.257       .  A
O1340      C1343   1.257       .  A
C1343      C1550   1.430       .  S
C1344      C1548   1.430       .  S
C1345      C1552   1.434       .  S
C1346      C1554   1.434       .  S
C1347      C1533   1.476       .  S
C1347      C1536   1.474       .  S
C1347      C1553   1.470       .  S
C1347      C1538   1.541       .  S
O1348      V1356   1.917   1_565  S
O1348      C1358   1.268       .  A
O1349      C1359   1.268       .  A
O1350      V1356   1.885   1_565  S
O1350      C1360   1.258       .  A
O1351      C1361   1.257       .  A
O1352      V1357   1.916       .  S
O1352      C1361   1.267       .  A
O1353      C1360   1.268       .  A
O1354      V1357   1.880       .  S
O1354      C1359   1.257       .  A
O1355      C1358   1.256       .  A
C1358      C1530   1.431       .  S
C1359      C1535   1.432       .  S
C1360      C1528   1.437       .  S
C1361      C1532   1.432       .  S
O1362      V1370   1.916       .  S
O1362      C1372   1.268       .  A
O1363      C1373   1.267       .  A
O1364      V1370   1.881       .  S
O1364      C1374   1.257       .  A
O1365      C1375   1.257       .  A
O1366      V1371   1.917       .  S
O1366      C1375   1.268       .  A
O1367      C1374   1.268       .  A
O1368      V1371   1.881       .  S
O1368      C1373   1.257       .  A
O1369      C1372   1.258       .  A
C1372      C1526   1.435       .  S
C1373      C1519   1.432       .  S
C1374      C1523   1.432       .  S
C1375      C1521   1.433       .  S
C1376      C1507   1.473       .  S
C1376      C1525   1.471       .  S
C1376      C1547   1.471       .  S
C1376      C1510   1.542       .  S
O1377      V1385   1.916       .  S
O1377      C1387   1.267       .  A
O1378      V1607   1.916       .  S
O1378      C1388   1.267       .  A
O1379      V1385   1.887       .  S
O1379      C1389   1.259       .  A
O1380      V1607   1.886       .  S
O1380      C1390   1.259       .  A
O1381      V1386   1.913       .  S
O1381      C1390   1.266       .  A
O1382      V1608   1.913       .  S
O1382      C1389   1.266       .  A
O1383      V1386   1.886       .  S
O1383      C1388   1.259       .  A
O1384      V1608   1.887       .  S
O1384      C1387   1.259       .  A
V1385      O1600   1.915       .  S
V1385      O1602   1.886       .  S
V1385      V1608   2.090       .  T
V1386      O1604   1.913   1_554  S
V1386      O1606   1.887   1_554  S
V1386      V1607   2.090       .  T
C1387      C1534   1.436       .  S
C1388      C1504   1.436       .  S
C1389      C1505   1.435       .  S
C1390      C1508   1.434       .  S
C1391      C1492   1.474       .  S
C1391      C1506   1.474       .  S
C1391      C1527   1.472       .  S
C1391      C1494   1.542       .  S
C1392      C1480   1.470       .  S
C1392      C1503   1.475       .  S
C1392      C1522   1.474       .  S
C1392      C1482   1.542       .  S
O1393      V1401   1.915       .  S
O1393      C1403   1.267       .  A
O1394      C1404   1.267       .  A
O1395      V1401   1.882       .  S
O1395      C1405   1.257       .  A
O1396      C1406   1.257       .  A
O1397      V1402   1.917   1_655  S
O1397      C1406   1.268       .  A
O1398      C1405   1.268       .  A
O1399      V1402   1.881   1_655  S
O1399      C1404   1.257       .  A
O1400      C1403   1.257       .  A
C1403      C1475   1.432       .  S
C1404      C1491   1.432       .  S
C1405      C1478   1.433       .  S
C1406      C1479   1.434       .  S
C1407      C1463   1.470       .  S
C1407      C1531   1.471       .  S
C1407      C1549   1.467       .  S
C1407      C1466   1.539       .  S
C1408      C1451   1.473       .  S
C1408      C1477   1.472       .  S
C1408      C1529   1.468       .  S
C1408      C1454   1.541       .  S
C1409      C1440   1.470       .  S
C1409      C1476   1.468       .  S
C1409      C1520   1.471       .  S
C1409      C1442   1.539       .  S
C1410      C1428   1.474       .  S
C1410      C1524   1.469       .  S
C1410      C1551   1.473       .  S
C1410      C1430   1.542       .  S
O1411      V1419   1.914   1_554  S
O1411      C1421   1.267       .  A
O1412      V1641   1.914       .  S
O1412      C1422   1.267       .  A
O1413      V1419   1.883   1_554  S
O1413      C1423   1.258       .  A
O1414      V1641   1.882       .  S
O1414      C1424   1.258       .  A
O1415      V1420   1.910       .  S
O1415      C1424   1.266       .  A
O1416      V1642   1.910   1_554  S
O1416      C1423   1.266       .  A
O1417      V1420   1.883       .  S
O1417      C1422   1.258       .  A
O1418      V1642   1.884   1_554  S
O1418      C1421   1.258       .  A
V1419      O1634   1.914       .  S
V1419      O1636   1.882       .  S
V1419      V1642   2.091       .  T
V1420      O1638   1.910       .  S
V1420      O1640   1.884       .  S
V1420      V1641   2.091       .  T
C1421      C1427   1.434       .  S
C1422      C1452   1.432       .  S
C1423      C1439   1.429       .  S
C1424      C1464   1.429       .  S
C1425      C1707   1.566   1_445  S
C1426      C1445   1.561       .  S
C1426      C1469   1.561       .  S
C1426      C1497   1.564       .  S
C1426      C1513   1.564       .  S
C1427      C1428   1.207       .  T
C1429      C1430   1.412       .  A
C1429      C1434   1.401       .  A
C1429      H1435   1.082       .  S
C1430      C1431   1.409       .  A
C1431      C1432   1.402       .  A
C1431      H1436   1.083       .  S
C1432      C1433   1.415       .  A
C1433      C1434   1.413       .  A
C1434      H1438   1.083   1_554  S
C1439      C1440   1.205       .  T
C1441      C1442   1.412       .  A
C1441      C1446   1.399       .  A
C1441      H1447   1.080       .  S
C1442      C1443   1.408       .  A
C1443      C1444   1.400       .  A
C1443      H1448   1.084       .  S
C1444      C1445   1.416       .  A
C1444      H1449   1.078       .  S
C1445      C1446   1.412       .  A
C1446      H1450   1.084       .  S
C1451      C1452   1.206       .  T
C1453      C1454   1.412       .  A
C1453      C1458   1.401       .  A
C1453      H1459   1.081       .  S
C1454      C1455   1.409       .  A
C1455      C1456   1.402       .  A
C1455      H1460   1.083       .  S
C1456      C1457   1.416       .  A
C1457      C1458   1.413       .  A
C1458      H1462   1.083       .  S
C1463      C1464   1.204       .  T
C1465      C1466   1.412       .  A
C1465      C1470   1.399       .  A
C1465      H1471   1.081       .  S
C1466      C1467   1.408       .  A
C1467      C1468   1.401       .  A
C1467      H1472   1.084       .  S
C1468      C1469   1.416       .  A
C1468      H1473   1.079       .  S
C1469      C1470   1.412       .  A
C1470      H1474   1.084       .  S
C1475      C1476   1.206       .  T
C1477      C1478   1.207       .  T
C1479      C1480   1.207       .  T
C1481      C1482   1.408       .  A
C1481      C1486   1.400       .  A
C1481      H1487   1.084       .  S
C1482      C1483   1.413       .  A
C1483      C1484   1.403       .  A
C1483      H1488   1.080       .  S
C1484      C1485   1.413       .  A
C1485      C1647   1.566   1_665  S
C1485      C1486   1.416       .  A
C1486      H1490   1.076       .  S
C1491      C1492   1.207       .  T
C1493      C1494   1.413       .  A
C1493      C1498   1.402       .  A
C1493      H1499   1.082       .  S
C1494      C1495   1.409       .  A
C1495      C1496   1.399       .  A
C1495      H1500   1.083       .  S
C1496      C1497   1.415       .  A
C1496      H1501   1.078       .  S
C1497      C1498   1.413       .  A
C1498      H1502   1.083       .  S
C1503      C1504   1.208       .  T
C1505      C1506   1.207       .  T
C1507      C1508   1.207       .  T
C1509      C1510   1.413       .  A
C1509      C1514   1.403       .  A
C1509      H1515   1.082       .  S
C1510      C1511   1.408       .  A
C1511      C1512   1.399       .  A
C1511      H1516   1.082       .  S
C1512      C1513   1.414       .  A
C1512      H1517   1.078       .  S
C1513      C1514   1.413       .  A
C1514      H1518   1.083       .  S
C1519      C1520   1.206       .  T
C1521      C1522   1.207       .  T
C1523      C1524   1.206       .  T
C1525      C1526   1.208       .  T
C1527      C1528   1.208       .  T
C1529      C1530   1.206       .  T
C1531      C1532   1.206       .  T
C1533      C1534   1.208       .  T
C1535      C1536   1.207       .  T
C1537      C1538   1.408       .  A
C1537      C1542   1.400       .  A
C1537      H1543   1.084       .  S
C1538      C1539   1.413       .  A
C1539      C1540   1.402       .  A
C1539      H1544   1.080       .  S
C1540      C1541   1.413       .  A
C1541      C1542   1.416       .  A
C1542      H1546   1.075       .  S
C1547      C1548   1.205       .  T
C1549      C1550   1.205       .  T
C1551      C1552   1.207       .  T
C1553      C1554   1.207       .  T
O1555      V1563   1.914       .  S
O1555      C1565   1.267       .  A
O1556      C1566   1.267       .  A
O1557      V1563   1.884       .  S
O1557      C1567   1.258       .  A
O1558      C1568   1.258       .  A
O1559      V1564   1.916   1_655  S
O1559      C1568   1.267       .  A
O1560      C1567   1.267       .  A
O1561      V1564   1.879   1_655  S
O1561      C1566   1.257       .  A
O1562      C1565   1.257       .  A
C1565      C1772   1.430       .  S
C1566      C1770   1.430       .  S
C1567      C1774   1.434       .  S
C1568      C1776   1.434       .  S
C1569      C1755   1.476       .  S
C1569      C1758   1.474       .  S
C1569      C1775   1.470       .  S
C1569      C1760   1.541       .  S
O1570      V1578   1.917   1_565  S
O1570      C1580   1.268       .  A
O1571      C1581   1.268       .  A
O1572      V1578   1.885   1_565  S
O1572      C1582   1.258       .  A
O1573      C1583   1.257       .  A
O1574      V1579   1.916       .  S
O1574      C1583   1.267       .  A
O1575      C1582   1.268       .  A
O1576      V1579   1.880       .  S
O1576      C1581   1.257       .  A
O1577      C1580   1.256       .  A
C1580      C1752   1.431       .  S
C1581      C1757   1.432       .  S
C1582      C1750   1.437       .  S
C1583      C1754   1.432       .  S
O1584      V1592   1.917       .  S
O1584      C1594   1.268       .  A
O1585      C1595   1.267       .  A
O1586      V1592   1.881       .  S
O1586      C1596   1.257       .  A
O1587      C1597   1.257       .  A
O1588      V1593   1.917       .  S
O1588      C1597   1.268       .  A
O1589      C1596   1.267       .  A
O1590      V1593   1.881       .  S
O1590      C1595   1.257       .  A
O1591      C1594   1.258       .  A
C1594      C1748   1.435       .  S
C1595      C1741   1.432       .  S
C1596      C1745   1.432       .  S
C1597      C1743   1.433       .  S
C1598      C1729   1.473       .  S
C1598      C1747   1.471       .  S
C1598      C1769   1.471       .  S
C1598      C1732   1.542       .  S
O1599      V1607   1.916   1_556  S
O1599      C1609   1.267       .  A
O1600      C1610   1.267       .  A
O1601      V1607   1.887   1_556  S
O1601      C1611   1.259       .  A
O1602      C1612   1.259       .  A
O1603      V1608   1.913       .  S
O1603      C1612   1.266       .  A
O1604      C1611   1.266       .  A
O1605      V1608   1.887       .  S
O1605      C1610   1.259       .  A
O1606      C1609   1.259       .  A
C1609      C1756   1.436       .  S
C1610      C1726   1.436       .  S
C1611      C1727   1.435       .  S
C1612      C1730   1.434       .  S
C1613      C1714   1.474       .  S
C1613      C1728   1.474       .  S
C1613      C1749   1.472       .  S
C1613      C1716   1.542       .  S
C1614      C1702   1.470       .  S
C1614      C1725   1.475       .  S
C1614      C1744   1.474       .  S
C1614      C1704   1.542       .  S
O1615      V1623   1.915       .  S
O1615      C1625   1.267       .  A
O1616      C1626   1.267       .  A
O1617      V1623   1.882       .  S
O1617      C1627   1.257       .  A
O1618      C1628   1.257       .  A
O1619      V1624   1.917   1_655  S
O1619      C1628   1.268       .  A
O1620      C1627   1.268       .  A
O1621      V1624   1.881   1_655  S
O1621      C1626   1.257       .  A
O1622      C1625   1.257       .  A
C1625      C1697   1.432       .  S
C1626      C1713   1.432       .  S
C1627      C1700   1.433       .  S
C1628      C1701   1.434       .  S
C1629      C1685   1.469       .  S
C1629      C1753   1.471       .  S
C1629      C1771   1.467       .  S
C1629      C1688   1.539       .  S
C1630      C1673   1.473       .  S
C1630      C1699   1.472       .  S
C1630      C1751   1.468       .  S
C1630      C1676   1.541       .  S
C1631      C1662   1.470       .  S
C1631      C1698   1.468       .  S
C1631      C1742   1.471       .  S
C1631      C1664   1.539       .  S
C1632      C1650   1.474       .  S
C1632      C1746   1.468       .  S
C1632      C1773   1.473       .  S
C1632      C1652   1.542       .  S
O1633      V1641   1.915       .  S
O1633      C1643   1.267       .  A
O1634      C1644   1.267       .  A
O1635      V1641   1.883       .  S
O1635      C1645   1.258       .  A
O1636      C1646   1.258       .  A
O1637      V1642   1.910       .  S
O1637      C1646   1.266       .  A
O1638      C1645   1.266       .  A
O1639      V1642   1.883       .  S
O1639      C1644   1.258       .  A
O1640      C1643   1.258       .  A
C1643      C1649   1.434       .  S
C1644      C1674   1.432       .  S
C1645      C1661   1.430       .  S
C1646      C1686   1.429       .  S
C1648      C1667   1.561       .  S
C1648      C1691   1.561       .  S
C1648      C1719   1.564       .  S
C1648      C1735   1.564       .  S
C1649      C1650   1.207       .  T
C1651      C1652   1.412       .  A
C1651      C1656   1.401       .  A
C1651      H1657   1.082       .  S
C1652      C1653   1.409       .  A
C1653      C1654   1.402       .  A
C1653      H1658   1.083       .  S
C1654      C1655   1.415       .  A
C1655      C1656   1.413       .  A
C1656      H1660   1.083       .  S
C1661      C1662   1.205       .  T
C1663      C1664   1.412       .  A
C1663      C1668   1.399       .  A
C1663      H1669   1.080       .  S
C1664      C1665   1.408       .  A
C1665      C1666   1.400       .  A
C1665      H1670   1.084       .  S
C1666      C1667   1.416       .  A
C1666      H1671   1.078       .  S
C1667      C1668   1.412       .  A
C1668      H1672   1.084       .  S
C1673      C1674   1.206       .  T
C1675      C1676   1.412       .  A
C1675      C1680   1.401       .  A
C1675      H1681   1.081       .  S
C1676      C1677   1.409       .  A
C1677      C1678   1.402       .  A
C1677      H1682   1.083       .  S
C1678      C1679   1.416       .  A
C1679      C1680   1.413       .  A
C1680      H1684   1.083   1_556  S
C1685      C1686   1.204       .  T
C1687      C1688   1.412       .  A
C1687      C1692   1.399       .  A
C1687      H1693   1.081       .  S
C1688      C1689   1.408       .  A
C1689      C1690   1.401       .  A
C1689      H1694   1.084       .  S
C1690      C1691   1.416       .  A
C1690      H1695   1.079       .  S
C1691      C1692   1.412       .  A
C1692      H1696   1.084       .  S
C1697      C1698   1.206       .  T
C1699      C1700   1.207       .  T
C1701      C1702   1.207       .  T
C1703      C1704   1.408       .  A
C1703      C1708   1.400       .  A
C1703      H1709   1.084       .  S
C1704      C1705   1.413       .  A
C1705      C1706   1.403       .  A
C1705      H1710   1.080       .  S
C1706      C1707   1.413       .  A
C1707      C1708   1.416       .  A
C1708      H1712   1.076       .  S
C1713      C1714   1.207       .  T
C1715      C1716   1.413       .  A
C1715      C1720   1.403       .  A
C1715      H1721   1.082       .  S
C1716      C1717   1.409       .  A
C1717      C1718   1.399       .  A
C1717      H1722   1.083       .  S
C1718      C1719   1.415       .  A
C1718      H1723   1.078       .  S
C1719      C1720   1.413       .  A
C1720      H1724   1.083       .  S
C1725      C1726   1.208       .  T
C1727      C1728   1.207       .  T
C1729      C1730   1.207       .  T
C1731      C1732   1.413       .  A
C1731      C1736   1.403       .  A
C1731      H1737   1.082       .  S
C1732      C1733   1.408       .  A
C1733      C1734   1.399       .  A
C1733      H1738   1.082       .  S
C1734      C1735   1.414       .  A
C1734      H1739   1.078       .  S
C1735      C1736   1.413       .  A
C1736      H1740   1.083       .  S
C1741      C1742   1.206       .  T
C1743      C1744   1.207       .  T
C1745      C1746   1.206       .  T
C1747      C1748   1.208       .  T
C1749      C1750   1.208       .  T
C1751      C1752   1.206       .  T
C1753      C1754   1.206       .  T
C1755      C1756   1.208       .  T
C1757      C1758   1.207       .  T
C1759      C1760   1.408       .  A
C1759      C1764   1.400       .  A
C1759      H1765   1.084       .  S
C1760      C1761   1.413       .  A
C1761      C1762   1.402       .  A
C1761      H1766   1.080       .  S
C1762      C1763   1.413       .  A
C1763      C1764   1.416       .  A
C1764      H1768   1.075       .  S
C1769      C1770   1.205       .  T
C1771      C1772   1.205       .  T
C1773      C1774   1.207       .  T
C1775      C1776   1.207       .  T
