geometry optimzed in LAMMPS
_audit_creation_date              2020-12-01 
_audit_creation_method            'lammps2cif' 
_symmetry_space_group_name_H-M    'P1' 
_symmetry_Int_Tables_number       1 
_symmetry_cell_setting            triclinic 
loop_ 
_symmetry_equiv_pos_as_xyz 
  x,y,z 
_cell_length_a                    78.19220682 
_cell_length_b                    78.25504400265432 
_cell_length_c                    78.16763838455041 
_cell_angle_alpha                 89.99887948059819 
_cell_angle_beta                  89.99314367886649 
_cell_angle_gamma                 89.97791645904755 
loop_ 
_atom_site_label 
_atom_site_type_symbol 
_atom_site_fract_x 
_atom_site_fract_y 
_atom_site_fract_z 
_atom_site_charge 
In1        In  0.90816778  0.70172605  0.80767957     1.36900
C2          C  0.88400075  0.70898234  0.83035564     0.79700
O3          O  0.88625052  0.68988308  0.79366888    -0.58700
O4          O  0.90957055  0.67590074  0.79493052    -0.49600
C5          C  0.91672972  0.72123520  0.78095156     0.72400
O6          O  0.90383419  0.72418774  0.79013573    -0.44500
C7          C  0.93203572  0.69679003  0.83161246     0.77100
O8          O  0.89204007  0.72062624  0.82258341    -0.56300
O9          O  0.92534601  0.68472780  0.82332900    -0.46400
O10         O  0.88812514  0.69397821  0.82635003    -0.52800
C11         C  0.89422611  0.67641369  0.78995129     0.87300
O12         O  0.92596226  0.70904640  0.78604060    -0.54700
O13         O  0.92783425  0.71151772  0.82659536    -0.57900
In14       In  0.96569954  0.64389101  0.92913962     1.36900
C15         C  0.97273838  0.61971317  0.90638067     0.79700
O16         O  0.95413349  0.62185480  0.94321294    -0.58700
O17         O  0.93982543  0.64495360  0.94184451    -0.49600
C18         C  0.98505207  0.65275159  0.95589391     0.72400
O19         O  0.98844830  0.64013624  0.94648393    -0.44500
C20         C  0.96090170  0.66787925  0.90533409     0.77100
O21         O  0.98444823  0.62728828  0.91452568    -0.56300
O22         O  0.94880798  0.66136751  0.91372599    -0.46400
O23         O  0.95777085  0.62431486  0.91004121    -0.52800
C24         C  0.94054552  0.62965647  0.94689700     0.87300
O25         O  0.97249735  0.66159422  0.95100410    -0.54700
O26         O  0.97562503  0.66343358  0.91018330    -0.57900
In27       In  0.94111685  0.53072764  0.84073409     1.36900
C28         C  0.91857950  0.52360099  0.86507242     0.79700
O29         O  0.95533522  0.54247521  0.86259278    -0.58700
O30         O  0.95337243  0.55678027  0.83951580    -0.49600
C31         C  0.96791899  0.51138569  0.83210613     0.72400
O32         O  0.95854402  0.50814022  0.84478921    -0.44500
C33         C  0.91729516  0.53548650  0.81671065     0.77100
O34         O  0.92626431  0.51191217  0.85700944    -0.56300
O35         O  0.92563414  0.54756834  0.82328102    -0.46400
O36         O  0.92256969  0.53857800  0.86085614    -0.52800
C37         C  0.95862446  0.55614344  0.85476798     0.87300
O38         O  0.96300078  0.52380455  0.82309727    -0.54700
O39         O  0.92216378  0.52077977  0.82115201    -0.57900
In40       In  0.81999686  0.58887022  0.78277475     1.36900
C41         C  0.84262971  0.61309644  0.77560542     0.79700
O42         O  0.80569290  0.61071043  0.79440511    -0.58700
O43         O  0.80738888  0.58763645  0.80873340    -0.49600
C44         C  0.79328697  0.58024584  0.76326877     0.72400
O45         O  0.80265792  0.59293571  0.76008159    -0.44500
C46         C  0.84395048  0.56499294  0.78762139     0.77100
O47         O  0.83520075  0.60478427  0.76392547    -0.56300
O48         O  0.83573737  0.57171227  0.79973027    -0.46400
O49         O  0.83827749  0.60924088  0.79059872    -0.52800
C50         C  0.80217039  0.60289158  0.80803026     0.87300
O51         O  0.79817178  0.57123704  0.77571107    -0.54700
O52         O  0.83887111  0.56918866  0.77290455    -0.57900
In53       In  0.79514136  0.67710940  0.89574162     1.36900
C54         C  0.78778044  0.65477637  0.87125090     0.79700
O55         O  0.80716757  0.69089260  0.87378171    -0.58700
O56         O  0.82093678  0.68989572  0.89725144    -0.49600
C57         C  0.77599829  0.70400866  0.90457826     0.72400
O58         O  0.77247870  0.69457034  0.89201480    -0.44500
C59         C  0.79993302  0.65303983  0.91951191     0.77100
O60         O  0.77616051  0.66273742  0.87916874    -0.56300
O61         O  0.81204843  0.66111343  0.91267038    -0.46400
O62         O  0.80280204  0.65843243  0.87565998    -0.52800
C63         C  0.82055928  0.69471228  0.88185020     0.87300
O64         O  0.78856314  0.69908364  0.91338732    -0.54700
O65         O  0.78522937  0.65830328  0.91549376    -0.57900
In66       In  0.85290521  0.55571758  0.95383437     1.36900
C67         C  0.87714773  0.57821898  0.96132272     0.79700
O68         O  0.87491171  0.54179721  0.94206622    -0.58700
O69         O  0.85168312  0.54312438  0.92792246    -0.49600
C70         C  0.84431953  0.52884803  0.97308458     0.72400
O71         O  0.85696996  0.53823040  0.97638933    -0.44500
C72         C  0.82896890  0.57954105  0.94872248     0.77100
O73         O  0.86889852  0.57056840  0.97291034    -0.56300
O74         O  0.83587156  0.57135990  0.93670476    -0.46400
O75         O  0.87315342  0.57421651  0.94627043    -0.52800
C76         C  0.86702632  0.53815142  0.92851533     0.87300
O77         O  0.83530232  0.53381070  0.96068048    -0.54700
O78         O  0.83302453  0.57450479  0.96349837    -0.57900
In79       In  0.07002024  0.95225775  0.34049940     1.36900
C80         C  0.09262200  0.95951827  0.36477201     0.79700
O81         O  0.05621807  0.94025346  0.36246024    -0.58700
O82         O  0.05753958  0.92632481  0.33910100    -0.49600
C83         C  0.04299563  0.97136710  0.33202451     0.72400
O84         O  0.05238266  0.97466576  0.34468555    -0.44500
C85         C  0.09389243  0.94752990  0.31653525     0.77100
O86         O  0.08494081  0.97117282  0.35664452    -0.56300
O87         O  0.08566931  0.93541955  0.32320194    -0.46400
O88         O  0.08856704  0.94452480  0.36067158    -0.52800
C89         C  0.05261695  0.92675930  0.35447269     0.87300
O90         O  0.04803059  0.95905178  0.32293918    -0.54700
O91         O  0.08884786  0.96222704  0.32081119    -0.57900
In92       In  0.19138896  0.89435125  0.28299318     1.36900
C93         C  0.16890108  0.86999901  0.27574822     0.79700
O94         O  0.20594296  0.87253720  0.29443056    -0.58700
O95         O  0.20384713  0.89538645  0.30903341    -0.49600
C96         C  0.21800200  0.90330828  0.26351515     0.72400
O97         O  0.20879971  0.89049393  0.26035291    -0.44500
C98         C  0.16745677  0.91823394  0.28782380     0.77100
O99         O  0.17662127  0.87807367  0.26408845    -0.56300
O100        O  0.17573828  0.91159948  0.29993348    -0.46400
O101        O  0.17280903  0.87423134  0.29075988    -0.52800
C102        C  0.20928594  0.88022215  0.30817121     0.87300
O103        O  0.21298809  0.91228948  0.27592940    -0.54700
O104        O  0.17243069  0.91391868  0.27310242    -0.57900
In105      In  0.04582644  0.83897238  0.42881979     1.36900
C106        C  0.03876477  0.86309270  0.40600345     0.79700
O107        O  0.05744911  0.86100161  0.44283604    -0.58700
O108        O  0.07176960  0.83791422  0.44139539    -0.49600
C109        C  0.02656774  0.83031194  0.45572926     0.72400
O110        O  0.02312673  0.84283447  0.44620868    -0.44500
C111        C  0.05033884  0.81485774  0.40506829     0.77100
O112        O  0.02708726  0.85572405  0.41438223    -0.56300
O113        O  0.06252876  0.82156015  0.41315829    -0.46400
O114        O  0.05372390  0.85830696  0.40944717    -0.52800
C115        C  0.07105263  0.85320694  0.44646554     0.87300
O116        O  0.03913592  0.82145111  0.45088718    -0.54700
O117        O  0.03566909  0.81917412  0.41020732    -0.57900
In118      In  0.10380103  0.78086296  0.30786609     1.36900
C119        C  0.12811059  0.77369734  0.33039491     0.79700
O120        O  0.12577690  0.79270456  0.29392353    -0.58700
O121        O  0.10249639  0.80674289  0.29520886    -0.49600
C122        C  0.09514354  0.76158314  0.28100759     0.72400
O123        O  0.10796996  0.75844805  0.29022479    -0.44500
C124        C  0.07988489  0.78557778  0.33182802     0.77100
O125        O  0.12020955  0.76201862  0.32252882    -0.56300
O126        O  0.08642216  0.79768568  0.32348668    -0.46400
O127        O  0.12374223  0.78868499  0.32658653    -0.52800
C128        C  0.11784365  0.80620513  0.29023524     0.87300
O129        O  0.08599372  0.77381114  0.28614882    -0.54700
O130        O  0.08432121  0.77088363  0.32690894    -0.57900
In131      In  0.21697894  0.80601442  0.39576273     1.36900
C132        C  0.22424370  0.82860658  0.37148578     0.79700
O133        O  0.20532735  0.79194124  0.37375794    -0.58700
O134        O  0.19111157  0.79334441  0.39693105    -0.49600
C135        C  0.23633349  0.77933069  0.40470212     0.72400
O136        O  0.23954483  0.78851043  0.39187146    -0.44500
C137        C  0.21196691  0.82986809  0.41966093     0.77100
O138        O  0.23589496  0.82056771  0.37927203    -0.56300
O139        O  0.19993384  0.82148965  0.41303223    -0.46400
O140        O  0.20924252  0.82495007  0.37596395    -0.52800
C141        C  0.19176300  0.78829952  0.38161625     0.87300
O142        O  0.22396233  0.78440757  0.41370267    -0.54700
O143        O  0.22673237  0.82499816  0.41536933    -0.57900
In144      In  0.15875690  0.92728542  0.45329817     1.36900
C145        C  0.13448301  0.90474185  0.46057797     0.79700
O146        O  0.13675178  0.94130417  0.44160161    -0.58700
O147        O  0.15978718  0.93958129  0.42720143    -0.49600
C148        C  0.16726508  0.95423896  0.47253196     0.72400
O149        O  0.15468753  0.94477456  0.47587712    -0.44500
C150        C  0.18277644  0.90343656  0.44860546     0.77100
O151        O  0.14244194  0.91261327  0.47221553    -0.56300
O152        O  0.17639742  0.91190868  0.43649624    -0.46400
O153        O  0.13878441  0.90853130  0.44554951    -0.52800
C154        C  0.14451289  0.94475134  0.42792617     0.87300
O155        O  0.17627866  0.94930479  0.46010958    -0.54700
O156        O  0.17820405  0.90822967  0.46331043    -0.57900
In157      In  0.35279141  0.05585719  0.95359307     1.36900
C158        C  0.37688368  0.07867165  0.96067860     0.79700
O159        O  0.37496789  0.04185251  0.94219550    -0.58700
O160        O  0.35187202  0.04284326  0.92783594    -0.49600
C161        C  0.34407391  0.02919271  0.97303834     0.72400
O162        O  0.35667828  0.03861638  0.97638557    -0.44500
C163        C  0.32858105  0.07944663  0.94867897     0.77100
O164        O  0.36920720  0.07061299  0.97238739    -0.56300
O165        O  0.33552606  0.07139991  0.93658661    -0.46400
O166        O  0.37238123  0.07493942  0.94569774    -0.52800
C167        C  0.36722204  0.03791807  0.92864917     0.87300
O168        O  0.33517419  0.03399939  0.96049959    -0.54700
O169        O  0.33275975  0.07438991  0.96341523    -0.57900
In170      In  0.29509349  0.17692462  0.89587319     1.36900
C171        C  0.28787981  0.15435802  0.87160919     0.79700
O172        O  0.30704846  0.19084100  0.87395579    -0.58700
O173        O  0.32096565  0.18959500  0.89732221    -0.49600
C174        C  0.27587891  0.20379395  0.90449087     0.72400
O175        O  0.27272241  0.19459580  0.89165798    -0.44500
C176        C  0.29959399  0.15293081  0.91974213     0.77100
O177        O  0.27621818  0.16242479  0.87935100    -0.56300
O178        O  0.31180438  0.16108755  0.91315178    -0.46400
O179        O  0.30288389  0.15802621  0.87607273    -0.52800
C180        C  0.32050587  0.19454545  0.88196352     0.87300
O181        O  0.28807484  0.19861475  0.91367276    -0.54700
O182        O  0.28493724  0.15811291  0.91545028    -0.57900
In183      In  0.44148450  0.03034730  0.84118654     1.36900
C184        C  0.41908618  0.02301135  0.86563407     0.79700
O185        O  0.45582002  0.04206869  0.86298679    -0.58700
O186        O  0.45379926  0.05639258  0.83993038    -0.49600
C187        C  0.46825514  0.01095736  0.83244782     0.72400
O188        O  0.45899002  0.00779587  0.84523032    -0.44500
C189        C  0.41750395  0.03522263  0.81729440     0.77100
O190        O  0.42661449  0.01139960  0.85731751    -0.56300
O191        O  0.42587386  0.04728603  0.82386734    -0.46400
O192        O  0.42316285  0.03802102  0.86161393    -0.52800
C193        C  0.45913093  0.05572608  0.85515497     0.87300
O194        O  0.46323780  0.02330948  0.82340027    -0.54700
O195        O  0.42241023  0.02050977  0.82166514    -0.57900
In196      In  0.32028033  0.08835328  0.78322253     1.36900
C197        C  0.34304645  0.11244115  0.77599903     0.79700
O198        O  0.30623727  0.11036884  0.79487710    -0.58700
O199        O  0.30777416  0.08730062  0.80921409    -0.49600
C200        C  0.29344383  0.07982625  0.76385125     0.72400
O201        O  0.30290084  0.09242517  0.76057333    -0.44500
C202        C  0.34400983  0.06424567  0.78797577     0.77100
O203        O  0.33505397  0.10462994  0.76434327    -0.56300
O204        O  0.33563932  0.07078131  0.80007636    -0.46400
O205        O  0.33923654  0.10811565  0.79101461    -0.52800
C206        C  0.30265032  0.10257689  0.80849668     0.87300
O207        O  0.29830719  0.07083187  0.77630992    -0.54700
O208        O  0.33916839  0.06872235  0.77325675    -0.57900
In209      In  0.40817302  0.20151966  0.80760583     1.36900
C210        C  0.38394084  0.20864165  0.83030539     0.79700
O211        O  0.38638323  0.18962209  0.79344119    -0.58700
O212        O  0.40964060  0.17556732  0.79516794    -0.49600
C213        C  0.41661474  0.22086458  0.78069570     0.72400
O214        O  0.40392014  0.22403806  0.79009102    -0.44500
C215        C  0.43220699  0.19682066  0.83142689     0.77100
O216        O  0.39205322  0.22032299  0.82266839    -0.56300
O217        O  0.42535332  0.18468649  0.82339574    -0.46400
O218        O  0.38800974  0.19366664  0.82614475    -0.52800
C219        C  0.39436111  0.17607827  0.78998808     0.87300
O220        O  0.42572528  0.20853150  0.78565698    -0.54700
O221        O  0.42805175  0.21150060  0.82623222    -0.57900
In222      In  0.46612241  0.14377094  0.92885776     1.36900
C223        C  0.47351770  0.11938596  0.90644075     0.79700
O224        O  0.45411400  0.12203092  0.94298337    -0.58700
O225        O  0.44012324  0.14531108  0.94127550    -0.49600
C226        C  0.48534590  0.15241823  0.95577458     0.72400
O227        O  0.48852183  0.13961104  0.94655509    -0.44500
C228        C  0.46131552  0.16757033  0.90482125     0.77100
O229        O  0.48513579  0.12770045  0.91396577    -0.56300
O230        O  0.44919854  0.16072224  0.91289596    -0.46400
O231        O  0.45849543  0.12335674  0.91056232    -0.52800
C232        C  0.44057305  0.13002844  0.94642078     0.87300
O233        O  0.47308129  0.16152406  0.95063653    -0.54700
O234        O  0.47602089  0.16350597  0.91004211    -0.57900
In235      In  0.21672408  0.17698691  0.59055514     1.36900
C236        C  0.22430753  0.15444411  0.61480640     0.79700
O237        O  0.20485355  0.19110347  0.61241004    -0.58700
O238        O  0.19074268  0.18942291  0.58918659    -0.49600
C239        C  0.23597652  0.20380012  0.58183458     0.72400
O240        O  0.23930410  0.19443262  0.59449899    -0.44500
C241        C  0.21166997  0.15318894  0.56664573     0.77100
O242        O  0.23585712  0.16218443  0.60659492    -0.56300
O243        O  0.19962665  0.16123610  0.57365091    -0.46400
O244        O  0.20925284  0.15841041  0.61080287    -0.52800
C245        C  0.19127671  0.19456023  0.60447736     0.87300
O246        O  0.22353224  0.19885338  0.57286882    -0.54700
O247        O  0.22642498  0.15834713  0.57058813    -0.57900
In248      In  0.15838870  0.05601554  0.53265039     1.36900
C249        C  0.13408345  0.07861723  0.52554650     0.79700
O250        O  0.13654329  0.04178825  0.54436980    -0.58700
O251        O  0.15977570  0.04322572  0.55848289    -0.49600
C252        C  0.16702915  0.02942724  0.51297459     0.72400
O253        O  0.15427124  0.03875589  0.50991441    -0.44500
C254        C  0.18229695  0.07983757  0.53770754     0.77100
O255        O  0.14228133  0.07107960  0.51384948    -0.56300
O256        O  0.17574275  0.07138299  0.54973310    -0.46400
O257        O  0.13811613  0.07441993  0.54054077    -0.52800
C258        C  0.14449262  0.03807994  0.55787056     0.87300
O259        O  0.17611764  0.03431463  0.52535432    -0.54700
O260        O  0.17789433  0.07509427  0.52294241    -0.57900
In261      In  0.19190310  0.08867691  0.70329514     1.36900
C262        C  0.16912419  0.11279820  0.71052607     0.79700
O263        O  0.20636483  0.11049460  0.69178598    -0.58700
O264        O  0.20422167  0.08762992  0.67720258    -0.49600
C265        C  0.21858462  0.08002235  0.72282112     0.72400
O266        O  0.20927023  0.09277376  0.72593581    -0.44500
C267        C  0.16821600  0.06461928  0.69840980     0.77100
O268        O  0.17672481  0.10461289  0.72218679    -0.56300
O269        O  0.17647709  0.07130311  0.68631811    -0.46400
O270        O  0.17332302  0.10882216  0.69552262    -0.52800
C271        C  0.20965964  0.10279142  0.67803726     0.87300
O272        O  0.21367978  0.07097918  0.71041438    -0.54700
O273        O  0.17313084  0.06894163  0.71314457    -0.57900
In274      In  0.07081023  0.03052025  0.64557307     1.36900
C275        C  0.09325483  0.02293653  0.62124023     0.79700
O276        O  0.05708208  0.04286356  0.62375600    -0.58700
O277        O  0.05807054  0.05632568  0.64739622    -0.49600
C278        C  0.04385127  0.01136278  0.65412910     0.72400
O279        O  0.05282516  0.00847025  0.64107384    -0.44500
C280        C  0.09479983  0.03548642  0.66935172     0.77100
O281        O  0.08575896  0.01138594  0.62967777    -0.56300
O282        O  0.08667792  0.04754676  0.66246282    -0.46400
O283        O  0.08909978  0.03797527  0.62507509    -0.52800
C284        C  0.05327593  0.05615837  0.63198105     0.87300
O285        O  0.04927886  0.02326615  0.66352687    -0.54700
O286        O  0.08966356  0.02075525  0.66532195    -0.57900
In287      In  0.10365892  0.20188065  0.67884309     1.36900
C288        C  0.12782167  0.20896683  0.65609453     0.79700
O289        O  0.12558862  0.18999295  0.69283435    -0.58700
O290        O  0.10237302  0.17588770  0.69125810    -0.49600
C291        C  0.09510627  0.22113803  0.70577182     0.72400
O292        O  0.10793258  0.22423801  0.69653978    -0.44500
C293        C  0.07965011  0.19731400  0.65498485     0.77100
O294        O  0.11993041  0.22067124  0.66394223    -0.56300
O295        O  0.08616675  0.18515550  0.66327523    -0.46400
O296        O  0.12355998  0.19399695  0.66006976    -0.52800
C297        C  0.11768746  0.17642442  0.69632965     0.87300
O298        O  0.08591767  0.20894845  0.70062444    -0.54700
O299        O  0.08411679  0.21197930  0.65994649    -0.57900
In300      In  0.04556093  0.14414854  0.55794609     1.36900
C301        C  0.03879105  0.11993028  0.58075538     0.79700
O302        O  0.05728773  0.12229383  0.54372817    -0.58700
O303        O  0.07140965  0.14549530  0.54520627    -0.49600
C304        C  0.02614106  0.15285258  0.53119543     0.72400
O305        O  0.02285139  0.14018968  0.54058172    -0.44500
C306        C  0.05020145  0.16823050  0.58168514     0.77100
O307        O  0.02698670  0.12759410  0.57282468    -0.56300
O308        O  0.06233882  0.16166023  0.57339829    -0.46400
O309        O  0.05371755  0.12444238  0.57683948    -0.52800
C310        C  0.07080243  0.13022247  0.54006016     0.87300
O311        O  0.03860143  0.16179851  0.53611245    -0.54700
O312        O  0.03550368  0.16376121  0.57678791    -0.57900
In313      In  0.60286744  0.20198074  0.17907639     1.36900
C314        C  0.62713154  0.20922240  0.15642789     0.79700
O315        O  0.62482254  0.19008645  0.19304007    -0.58700
O316        O  0.60153352  0.17608852  0.19173354    -0.49600
C317        C  0.59434448  0.22124617  0.20601729     0.72400
O318        O  0.60700034  0.22450488  0.19660478    -0.44500
C319        C  0.57881535  0.19726918  0.15524335     0.77100
O320        O  0.61917648  0.22087012  0.16429590    -0.56300
O321        O  0.58565024  0.18514105  0.16331238    -0.46400
O322        O  0.62284393  0.19422991  0.16029263    -0.52800
C323        C  0.61687456  0.17659634  0.19672512     0.87300
O324        O  0.58528624  0.20888936  0.20104318    -0.54700
O325        O  0.58300563  0.21195062  0.16039750    -0.57900
In326      In  0.54486250  0.14428452  0.05799927     1.36900
C327        C  0.53752022  0.12003614  0.08055323     0.79700
O328        O  0.55713480  0.12232697  0.04437033    -0.58700
O329        O  0.57077430  0.14582516  0.04539339    -0.49600
C330        C  0.52560855  0.15276768  0.03105236     0.72400
O331        O  0.52242710  0.14005062  0.04038992    -0.44500
C332        C  0.54938353  0.16826993  0.08188869     0.77100
O333        O  0.52589547  0.12772586  0.07238622    -0.56300
O334        O  0.56156630  0.16155124  0.07380077    -0.46400
O335        O  0.55252826  0.12459493  0.07704081    -0.52800
C336        C  0.57052686  0.13042308  0.04063000     0.87300
O337        O  0.53792197  0.16186744  0.03606586    -0.54700
O338        O  0.53471626  0.16400800  0.07671912    -0.57900
In339      In  0.65834463  0.05618935  0.03284315     1.36900
C340        C  0.63426405  0.07913228  0.02601382     0.79700
O341        O  0.63650456  0.04181066  0.04445065    -0.58700
O342        O  0.65951736  0.04376336  0.05885456    -0.49600
C343        C  0.66692151  0.02947784  0.01330810     0.72400
O344        O  0.65412438  0.03875921  0.01023693    -0.44500
C345        C  0.68246153  0.07986994  0.03762485     0.77100
O346        O  0.64205096  0.07131376  0.01421669    -0.56300
O347        O  0.67599518  0.07143002  0.04971250    -0.46400
O348        O  0.63857403  0.07502871  0.04095190    -0.52800
C349        C  0.64431086  0.03841683  0.05811800     0.87300
O350        O  0.67605981  0.03447569  0.02560946    -0.54700
O351        O  0.67792801  0.07510525  0.02289697    -0.57900
In352      In  0.71614704  0.17734042  0.09082653     1.36900
C353        C  0.72319790  0.15478526  0.11516342     0.79700
O354        O  0.70446016  0.19156251  0.11273746    -0.58700
O355        O  0.69012253  0.18976892  0.08967180    -0.49600
C356        C  0.73548738  0.20412063  0.08207613     0.72400
O357        O  0.73856593  0.19498220  0.09496893    -0.44500
C358        C  0.71139819  0.15338046  0.06692918     0.77100
O359        O  0.73492827  0.16248762  0.10716841    -0.56300
O360        O  0.69931099  0.16195527  0.07322583    -0.46400
O361        O  0.70822161  0.15877588  0.11088682    -0.52800
C362        C  0.69080514  0.19498962  0.10493402     0.87300
O363        O  0.72329964  0.19892687  0.07289908    -0.54700
O364        O  0.72610680  0.15809453  0.07155279    -0.57900
In365      In  0.69119636  0.08902227  0.20402646     1.36900
C366        C  0.66829528  0.11304791  0.21127009     0.79700
O367        O  0.70519556  0.11100234  0.19231633    -0.58700
O368        O  0.70353400  0.08793911  0.17797808    -0.49600
C369        C  0.71814148  0.08050008  0.22329709     0.72400
O370        O  0.70874737  0.09316504  0.22654580    -0.44500
C371        C  0.66758226  0.06490147  0.19920275     0.77100
O372        O  0.67634438  0.10528759  0.22292892    -0.56300
O373        O  0.67568546  0.07173226  0.18709088    -0.46400
O374        O  0.67208877  0.10867449  0.19627054    -0.52800
C375        C  0.70863935  0.10321864  0.17865351     0.87300
O376        O  0.71317873  0.07146091  0.21090916    -0.54700
O377        O  0.67266880  0.06906689  0.21393304    -0.57900
In378      In  0.57029477  0.03124013  0.14598565     1.36900
C379        C  0.59297425  0.02407157  0.12175749     0.79700
O380        O  0.55626280  0.04292896  0.12394585    -0.58700
O381        O  0.55778597  0.05720714  0.14705583    -0.49600
C382        C  0.54359493  0.01172491  0.15468062     0.72400
O383        O  0.55295046  0.00857138  0.14196158    -0.44500
C384        C  0.59405682  0.03604439  0.17004634     0.77100
O385        O  0.58493333  0.01242084  0.12951587    -0.56300
O386        O  0.58545950  0.04809640  0.16373625    -0.46400
O387        O  0.58929096  0.03905948  0.12623970    -0.52800
C388        C  0.55269439  0.05653345  0.13175522     0.87300
O389        O  0.54848281  0.02414681  0.16369826    -0.54700
O390        O  0.58945420  0.02133767  0.16535185    -0.57900
In391      In  0.90825513  0.28115496  0.17935183     1.36900
C392        C  0.88404180  0.27375063  0.15671921     0.79700
O393        O  0.88638151  0.29318623  0.19331687    -0.58700
O394        O  0.90984955  0.30690953  0.19225133    -0.49600
C395        C  0.91677120  0.26166732  0.20613644     0.72400
O396        O  0.90385994  0.25875338  0.19696553    -0.44500
C397        C  0.93209449  0.28617473  0.15538388     0.77100
O398        O  0.89226300  0.26215232  0.16438114    -0.56300
O399        O  0.92507685  0.29822358  0.16341542    -0.46400
O400        O  0.88802581  0.28876737  0.16080162    -0.52800
C401        C  0.89447551  0.30654485  0.19715703     0.87300
O402        O  0.92604717  0.27380167  0.20100589    -0.54700
O403        O  0.92821740  0.27144764  0.16065498    -0.57900
In404      In  0.96600268  0.33915194  0.05793288     1.36900
C405        C  0.97313905  0.36340621  0.08056254     0.79700
O406        O  0.95423448  0.36100639  0.04375073    -0.58700
O407        O  0.93998217  0.33790498  0.04558727    -0.49600
C408        C  0.98531222  0.33058032  0.03105411     0.72400
O409        O  0.98856329  0.34324001  0.04044284    -0.44500
C410        C  0.96122489  0.31519800  0.08179166     0.77100
O411        O  0.98483376  0.35538666  0.07282750    -0.56300
O412        O  0.94913259  0.32170528  0.07339487    -0.46400
O413        O  0.95814920  0.35920083  0.07656082    -0.52800
C414        C  0.94061077  0.35314543  0.04035069     0.87300
O415        O  0.97293305  0.32154254  0.03601978    -0.54700
O416        O  0.97594414  0.31962939  0.07692603    -0.57900
In417      In  0.85274977  0.42697526  0.03298080     1.36900
C418        C  0.87692123  0.40431922  0.02581766     0.79700
O419        O  0.87491430  0.44064850  0.04476235    -0.58700
O420        O  0.85161136  0.43976470  0.05881373    -0.49600
C421        C  0.84426505  0.45375693  0.01355264     0.72400
O422        O  0.85681829  0.44423321  0.01024626    -0.44500
C423        C  0.82869048  0.40323057  0.03781759     0.77100
O424        O  0.86900855  0.41216595  0.01412310    -0.56300
O425        O  0.83534346  0.41151337  0.04990417    -0.46400
O426        O  0.87262362  0.40819823  0.04082271    -0.52800
C427        C  0.86702443  0.44451355  0.05825372     0.87300
O428        O  0.83531380  0.44900811  0.02608711    -0.54700
O429        O  0.83304315  0.40814621  0.02308827    -0.57900
In430      In  0.79519692  0.30595601  0.09122778     1.36900
C431        C  0.78824872  0.32851498  0.11564329     0.79700
O432        O  0.80676315  0.29163674  0.11315225    -0.58700
O433        O  0.82111406  0.29330869  0.09007917    -0.49600
C434        C  0.77575325  0.27930437  0.08235346     0.72400
O435        O  0.77223499  0.28888204  0.09481660    -0.44500
C436        C  0.79979801  0.32985806  0.06723075     0.77100
O437        O  0.77650633  0.32056638  0.10791796    -0.56300
O438        O  0.81197064  0.32174384  0.07394076    -0.46400
O439        O  0.80320000  0.32474297  0.11108683    -0.52800
C440        C  0.82039501  0.28810419  0.10534513     0.87300
O441        O  0.78851141  0.28395372  0.07366844    -0.54700
O442        O  0.78513090  0.32470624  0.07149752    -0.57900
In443      In  0.82065166  0.39432608  0.20427692     1.36900
C444        C  0.84329856  0.37015664  0.21167220     0.79700
O445        O  0.80687746  0.37229625  0.19237756    -0.58700
O446        O  0.80778527  0.39565220  0.17845493    -0.49600
C447        C  0.79379229  0.40285403  0.22361589     0.72400
O448        O  0.80323663  0.39023992  0.22691134    -0.44500
C449        C  0.84447663  0.41830651  0.19939773     0.77100
O450        O  0.83561624  0.37834303  0.22328937    -0.56300
O451        O  0.83638458  0.41143549  0.18730342    -0.46400
O452        O  0.83922078  0.37414552  0.19663469    -0.52800
C453        C  0.80298359  0.38026115  0.17894093     0.87300
O454        O  0.79867103  0.41183537  0.21115878    -0.54700
O455        O  0.83935776  0.41418296  0.21412290    -0.57900
In456      In  0.94132130  0.45265675  0.14577718     1.36900
C457        C  0.91860753  0.45969631  0.12156312     0.79700
O458        O  0.95561970  0.44093144  0.12393723    -0.58700
O459        O  0.95367330  0.42664041  0.14702257    -0.49600
C460        C  0.96806425  0.47208307  0.15442358     0.72400
O461        O  0.95886333  0.47513443  0.14156108    -0.44500
C462        C  0.91756199  0.44783180  0.16983680     0.77100
O463        O  0.92628158  0.47142433  0.12957345    -0.56300
O464        O  0.92580078  0.43574997  0.16312082    -0.46400
O465        O  0.92270406  0.44474456  0.12576489    -0.52800
C466        C  0.95893391  0.42727289  0.13177218     0.87300
O467        O  0.96299235  0.45982970  0.16357416    -0.54700
O468        O  0.92250073  0.46254847  0.16551126    -0.57900
In469      In  0.90845855  0.20200733  0.30837797     1.36900
C470        C  0.88414526  0.20909856  0.33098874     0.79700
O471        O  0.88664149  0.19031034  0.29406830    -0.58700
O472        O  0.90963824  0.17590211  0.29621613    -0.49600
C473        C  0.91696867  0.22127270  0.28143185     0.72400
O474        O  0.90445932  0.22467147  0.29099051    -0.44500
C475        C  0.93253235  0.19741216  0.33221759     0.77100
O476        O  0.89205144  0.22078435  0.32314924    -0.56300
O477        O  0.92597083  0.18527439  0.32394997    -0.46400
O478        O  0.88846777  0.19412427  0.32708550    -0.52800
C479        C  0.89443768  0.17660940  0.29083595     0.87300
O480        O  0.92590148  0.20875885  0.28625779    -0.54700
O481        O  0.92808853  0.21208170  0.32723763    -0.57900
In482      In  0.96641677  0.14389051  0.42933462     1.36900
C483        C  0.97345607  0.11958594  0.40669517     0.79700
O484        O  0.95503413  0.12190477  0.44366888    -0.58700
O485        O  0.94050737  0.14484578  0.44204714    -0.49600
C486        C  0.98584122  0.15285312  0.45598747     0.72400
O487        O  0.98926088  0.14025387  0.44656276    -0.44500
C488        C  0.96166160  0.16794849  0.40553643     0.77100
O489        O  0.98517797  0.12737797  0.41461077    -0.56300
O490        O  0.94953465  0.16119509  0.41368671    -0.46400
O491        O  0.95848892  0.12407688  0.41048165    -0.52800
C492        C  0.94136067  0.12960191  0.44725444     0.87300
O493        O  0.97319251  0.16161131  0.45118451    -0.54700
O494        O  0.97636278  0.16365246  0.41057980    -0.57900
In495      In  0.82016020  0.08898351  0.28324432     1.36900
C496        C  0.84287363  0.11319667  0.27626983     0.79700
O497        O  0.80585329  0.11087912  0.29478069    -0.58700
O498        O  0.80808211  0.08804719  0.30942255    -0.49600
C499        C  0.79324970  0.08033610  0.26399957     0.72400
O500        O  0.80274654  0.09286990  0.26057867    -0.44500
C501        C  0.84393755  0.06490296  0.28774131     0.77100
O502        O  0.83498955  0.10540770  0.26452452    -0.56300
O503        O  0.83556961  0.07129542  0.29992015    -0.46400
O504        O  0.83897556  0.10879253  0.29123507    -0.52800
C505        C  0.80267230  0.10322207  0.30858046     0.87300
O506        O  0.79810409  0.07145984  0.27655001    -0.54700
O507        O  0.83907068  0.06950763  0.27307187    -0.57900
In508      In  0.94090231  0.03082289  0.34103969     1.36900
C509        C  0.91806695  0.02369629  0.36510267     0.79700
O510        O  0.95522997  0.04218561  0.36305499    -0.58700
O511        O  0.95324366  0.05684843  0.34021056    -0.49600
C512        C  0.96768363  0.01150688  0.33234871     0.72400
O513        O  0.95828414  0.00819368  0.34499992    -0.44500
C514        C  0.91728459  0.03562234  0.31685803     0.77100
O515        O  0.92595921  0.01201349  0.35723255    -0.56300
O516        O  0.92559966  0.04770652  0.32346841    -0.46400
O517        O  0.92198530  0.03867683  0.36082219    -0.52800
C518        C  0.95858964  0.05594160  0.35541622     0.87300
O519        O  0.96278336  0.02397192  0.32338981    -0.54700
O520        O  0.92211797  0.02090866  0.32131654    -0.57900
In521      In  0.85328340  0.05601485  0.45442916     1.36900
C522        C  0.87768644  0.07838189  0.46181393     0.79700
O523        O  0.87532165  0.04241374  0.44228406    -0.58700
O524        O  0.85175140  0.04304270  0.42869858    -0.49600
C525        C  0.84466031  0.02915022  0.47369116     0.72400
O526        O  0.85747343  0.03836655  0.47684159    -0.44500
C527        C  0.82944294  0.08002473  0.44973263     0.77100
O528        O  0.86983097  0.07034954  0.47342418    -0.56300
O529        O  0.83611265  0.07183061  0.43758831    -0.46400
O530        O  0.87317630  0.07486502  0.44678015    -0.52800
C531        C  0.86719788  0.03838161  0.42899025     0.87300
O532        O  0.83551491  0.03428630  0.46145188    -0.54700
O533        O  0.83367132  0.07490943  0.46443392    -0.57900
In534      In  0.79525716  0.17718542  0.39642075     1.36900
C535        C  0.78798257  0.15470343  0.37207915     0.79700
O536        O  0.80727659  0.19095834  0.37444371    -0.58700
O537        O  0.82105035  0.18999330  0.39790581    -0.49600
C538        C  0.77586501  0.20397629  0.40502426     0.72400
O539        O  0.77269158  0.19466016  0.39228452    -0.44500
C540        C  0.80020609  0.15333726  0.42037104     0.77100
O541        O  0.77632524  0.16254869  0.38005182    -0.56300
O542        O  0.81225842  0.16157554  0.41361096    -0.46400
O543        O  0.80299291  0.15849971  0.37640221    -0.52800
C544        C  0.82066729  0.19479570  0.38250138     0.87300
O545        O  0.78821557  0.19899285  0.41409991    -0.54700
O546        O  0.78545831  0.15829569  0.41613133    -0.57900
In547      In  0.69175683  0.89435992  0.78275454     1.36900
C548        C  0.66894990  0.87019976  0.77580310     0.79700
O549        O  0.70593737  0.87239671  0.79431722    -0.58700
O550        O  0.70411807  0.89536119  0.80879637    -0.49600
C551        C  0.71855740  0.90295081  0.76331349     0.72400
O552        O  0.70921340  0.89023816  0.76014470    -0.44500
C553        C  0.66810151  0.91849828  0.78760524     0.77100
O554        O  0.67676891  0.87803694  0.76404122    -0.56300
O555        O  0.67644360  0.91189333  0.79968675    -0.46400
O556        O  0.67290143  0.87458673  0.79075593    -0.52800
C557        C  0.70931352  0.88011013  0.80803417     0.87300
O558        O  0.71360954  0.91199723  0.77570358    -0.54700
O559        O  0.67293251  0.91406426  0.77286715    -0.57900
In560      In  0.57055025  0.95168859  0.84070371     1.36900
C561        C  0.59309103  0.95896053  0.86501411     0.79700
O562        O  0.55660860  0.93980346  0.86266092    -0.58700
O563        O  0.55797934  0.92575316  0.83939620    -0.49600
C564        C  0.54364464  0.97094396  0.83215498     0.72400
O565        O  0.55288786  0.97406086  0.84496502    -0.44500
C566        C  0.59447591  0.94722257  0.81671213     0.77100
O567        O  0.58506749  0.97057533  0.85717296    -0.56300
O568        O  0.58614317  0.93503617  0.82311560    -0.46400
O569        O  0.58945409  0.94394867  0.86057482    -0.52800
C570        C  0.55294474  0.92630262  0.85472672     0.87300
O571        O  0.54878242  0.95874978  0.82295987    -0.54700
O572        O  0.58952070  0.96186421  0.82127257    -0.57900
In573      In  0.71655502  0.80604965  0.89594008     1.36900
C574        C  0.72369088  0.82859703  0.87162545     0.79700
O575        O  0.70488656  0.79179510  0.87405147    -0.58700
O576        O  0.69057644  0.79357670  0.89713851    -0.49600
C577        C  0.73600659  0.77934698  0.90466458     0.72400
O578        O  0.73909589  0.78854868  0.89181985    -0.44500
C579        C  0.71167551  0.82994623  0.91987564     0.77100
O580        O  0.73538557  0.82072594  0.87950847    -0.56300
O581        O  0.69961100  0.82157667  0.91329226    -0.46400
O582        O  0.70870348  0.82479911  0.87602265    -0.52800
C583        C  0.69124804  0.78836327  0.88187723     0.87300
O584        O  0.72371837  0.78441697  0.91378737    -0.54700
O585        O  0.72641430  0.82504957  0.91552030    -0.57900
In586      In  0.65836260  0.92721025  0.95408134     1.36900
C587        C  0.63422513  0.90450509  0.96144306     0.79700
O588        O  0.63647529  0.94147607  0.94241283    -0.58700
O589        O  0.65958253  0.93976626  0.92812708    -0.49600
C590        C  0.66705732  0.95406826  0.97333366     0.72400
O591        O  0.65423789  0.94486187  0.97651444    -0.44500
C592        C  0.68232983  0.90336400  0.94911562     0.77100
O593        O  0.64223929  0.91233372  0.97307664    -0.56300
O594        O  0.67531463  0.91137166  0.93704120    -0.46400
O595        O  0.63836233  0.90846742  0.94642046    -0.52800
C596        C  0.64432753  0.94499533  0.92880603     0.87300
O597        O  0.67618785  0.94890496  0.96108584    -0.54700
O598        O  0.67838558  0.90860834  0.96385615    -0.57900
In599      In  0.60316937  0.78130344  0.80796653     1.36900
C600        C  0.62739209  0.77415730  0.83065694     0.79700
O601        O  0.62516660  0.79293184  0.79386867    -0.58700
O602        O  0.60215717  0.80735912  0.79565015    -0.49600
C603        C  0.59465754  0.76202045  0.78104170     0.72400
O604        O  0.60735129  0.75881718  0.79041612    -0.44500
C605        C  0.57906844  0.78600529  0.83174171     0.77100
O606        O  0.61943166  0.76248006  0.82285378    -0.56300
O607        O  0.58562635  0.79811932  0.82342534    -0.46400
O608        O  0.62309798  0.78913731  0.82674349    -0.52800
C609        C  0.61743154  0.80662500  0.79047640     0.87300
O610        O  0.58555809  0.77434996  0.78603291    -0.54700
O611        O  0.58353123  0.77131582  0.82683604    -0.57900
In612      In  0.54543842  0.83894439  0.92917484     1.36900
C613        C  0.53828394  0.86316175  0.90649531     0.79700
O614        O  0.55709607  0.86090823  0.94330708    -0.58700
O615        O  0.57146590  0.83786714  0.94153908    -0.49600
C616        C  0.52622306  0.83020298  0.95607613     0.72400
O617        O  0.52263153  0.84261675  0.94647270    -0.44500
C618        C  0.55004205  0.81490791  0.90534030     0.77100
O619        O  0.52660352  0.85536809  0.91447057    -0.56300
O620        O  0.56220034  0.82150984  0.91355590    -0.46400
O621        O  0.55327651  0.85878618  0.91031519    -0.52800
C622        C  0.57075899  0.85311555  0.94674707     0.87300
O623        O  0.53894584  0.82151241  0.95134863    -0.54700
O624        O  0.53536466  0.81927630  0.91038882    -0.57900
In625      In  0.60337606  0.28137253  0.30783664     1.36900
C626        C  0.62742408  0.27418476  0.33075391     0.79700
O627        O  0.62531594  0.29298662  0.29363155    -0.58700
O628        O  0.60221940  0.30728769  0.29522107    -0.49600
C629        C  0.59472349  0.26184869  0.28114276     0.72400
O630        O  0.60752774  0.25877812  0.29041564    -0.44500
C631        C  0.57916489  0.28628475  0.33141004     0.77100
O632        O  0.61957251  0.26252870  0.32281256    -0.56300
O633        O  0.58600653  0.29835743  0.32326626    -0.46400
O634        O  0.62315350  0.28916800  0.32682735    -0.52800
C635        C  0.61749882  0.30658970  0.29006959     0.87300
O636        O  0.58563927  0.27420189  0.28609947    -0.54700
O637        O  0.58345028  0.27155937  0.32645727    -0.57900
In638      In  0.54549953  0.33889089  0.42899019     1.36900
C639        C  0.53820860  0.36335452  0.40665921     0.79700
O640        O  0.55743922  0.36068686  0.44309687    -0.58700
O641        O  0.57162642  0.33755266  0.44118911    -0.49600
C642        C  0.52626481  0.33013931  0.45585398     0.72400
O643        O  0.52302283  0.34288781  0.44658600    -0.44500
C644        C  0.54990537  0.31510669  0.40488861     0.77100
O645        O  0.52657586  0.35546526  0.41460712    -0.56300
O646        O  0.56210403  0.32135614  0.41332082    -0.46400
O647        O  0.55322652  0.35890097  0.41028820    -0.52800
C648        C  0.57107155  0.35280206  0.44641432     0.87300
O649        O  0.53863643  0.32112687  0.45080554    -0.54700
O650        O  0.53526093  0.31971185  0.40981826    -0.57900
In651      In  0.65854951  0.42727813  0.45406631     1.36900
C652        C  0.63426679  0.40465248  0.46110657     0.79700
O653        O  0.63658493  0.44134068  0.44234101    -0.58700
O654        O  0.65978628  0.43989333  0.42815882    -0.49600
C655        C  0.66737501  0.45414828  0.47325692     0.72400
O656        O  0.65481874  0.44469985  0.47677411    -0.44500
C657        C  0.68249076  0.40337948  0.44935473     0.77100
O658        O  0.64210232  0.41250953  0.47284728    -0.56300
O659        O  0.67577207  0.41153893  0.43721668    -0.46400
O660        O  0.63861902  0.40858621  0.44613463    -0.52800
C661        C  0.64447603  0.44497025  0.42878181     0.87300
O662        O  0.67617646  0.44924180  0.46067425    -0.54700
O663        O  0.67825377  0.40847824  0.46405850    -0.57900
In664      In  0.71633276  0.30601057  0.39632577     1.36900
C665        C  0.72360513  0.32846175  0.37197015     0.79700
O666        O  0.70450186  0.29187233  0.37446879    -0.58700
O667        O  0.69036806  0.29351582  0.39769045    -0.49600
C668        C  0.73563425  0.27919568  0.40497324     0.72400
O669        O  0.73887428  0.28851181  0.39224652    -0.44500
C670        C  0.71156627  0.32997942  0.42019305     0.77100
O671        O  0.73525711  0.32105152  0.38034674    -0.56300
O672        O  0.69943827  0.32184287  0.41343997    -0.46400
O673        O  0.70859949  0.32420601  0.37585608    -0.52800
C674        C  0.69092888  0.28837521  0.38239175     0.87300
O675        O  0.72326224  0.28419519  0.41401698    -0.54700
O676        O  0.72626550  0.32484043  0.41601396    -0.57900
In677      In  0.69172525  0.39410569  0.28313158     1.36900
C678        C  0.66922095  0.36982234  0.27574863     0.79700
O679        O  0.70572825  0.37211822  0.29484460    -0.58700
O680        O  0.70417011  0.39523775  0.30911937    -0.49600
C681        C  0.71859296  0.40291932  0.26394425     0.72400
O682        O  0.70920584  0.39030963  0.26051652    -0.44500
C683        C  0.66781287  0.41798843  0.28797003     0.77100
O684        O  0.67691866  0.37798503  0.26413031    -0.56300
O685        O  0.67615156  0.41141113  0.30006562    -0.46400
O686        O  0.67320780  0.37389311  0.29078696    -0.52800
C687        C  0.70925045  0.37994236  0.30846477     0.87300
O688        O  0.71365129  0.41177525  0.27646843    -0.54700
O689        O  0.67273625  0.41363734  0.27324437    -0.57900
In690      In  0.57048411  0.45201781  0.34100531     1.36900
C691        C  0.59314176  0.45937285  0.36519685     0.79700
O692        O  0.55661548  0.44042969  0.36318202    -0.58700
O693        O  0.55761645  0.42624708  0.33997340    -0.49600
C694        C  0.54370322  0.47144704  0.33239388     0.72400
O695        O  0.55348451  0.47502517  0.34467830    -0.44500
C696        C  0.59422477  0.44698529  0.31694275     0.77100
O697        O  0.58503930  0.47096915  0.35741194    -0.56300
O698        O  0.58622186  0.43494500  0.32398615    -0.46400
O699        O  0.58952198  0.44436197  0.36076391    -0.52800
C700        C  0.55276507  0.42691340  0.35535508     0.87300
O701        O  0.54821621  0.45863784  0.32372040    -0.54700
O702        O  0.58901032  0.46171382  0.32088701    -0.57900
In703      In  0.29523242  0.30602108  0.59032253     1.36900
C704        C  0.28824803  0.32873737  0.61454051     0.79700
O705        O  0.30707114  0.29201723  0.61227482    -0.58700
O706        O  0.32106953  0.29326837  0.58895372    -0.49600
C707        C  0.27590926  0.27917476  0.58187765     0.72400
O708        O  0.27264101  0.28861309  0.59451159    -0.44500
C709        C  0.29992425  0.32981052  0.56626555     0.77100
O710        O  0.27649976  0.32089259  0.60671178    -0.56300
O711        O  0.31205076  0.32158211  0.57292069    -0.46400
O712        O  0.30321217  0.32477964  0.61018218    -0.52800
C713        C  0.32053810  0.28825852  0.60429145     0.87300
O714        O  0.28827613  0.28410061  0.57279231    -0.54700
O715        O  0.28521987  0.32481625  0.57060885    -0.57900
In716      In  0.35360908  0.42682684  0.53240147     1.36900
C717        C  0.37773365  0.40415449  0.52501617     0.79700
O718        O  0.37551007  0.44079556  0.54437326    -0.58700
O719        O  0.35210006  0.43964913  0.55821687    -0.49600
C720        C  0.34491930  0.45364786  0.51312825     0.72400
O721        O  0.35788518  0.44458733  0.51009014    -0.44500
C722        C  0.32968659  0.40295940  0.53723305     0.77100
O723        O  0.36961088  0.41188354  0.51338556    -0.56300
O724        O  0.33673233  0.41085404  0.54936190    -0.46400
O725        O  0.37371929  0.40821378  0.54004869    -0.52800
C726        C  0.36746187  0.44458059  0.55779600     0.87300
O727        O  0.33568394  0.44836420  0.52523759    -0.54700
O728        O  0.33363646  0.40827936  0.52252664    -0.57900
In729      In  0.44129434  0.45160136  0.64586541     1.36900
C730        C  0.41850319  0.45882821  0.62172631     0.79700
O731        O  0.45524318  0.43960479  0.62395097    -0.58700
O732        O  0.45426942  0.42585619  0.64740626    -0.49600
C733        C  0.46798575  0.47119775  0.65430067     0.72400
O734        O  0.45887710  0.47398277  0.64131396    -0.44500
C735        C  0.41759595  0.44677565  0.66999929     0.77100
O736        O  0.42649503  0.47046867  0.62955242    -0.56300
O737        O  0.42569276  0.43467214  0.66314465    -0.46400
O738        O  0.42228609  0.44383555  0.62610230    -0.52800
C739        C  0.45914599  0.42625082  0.63202274     0.87300
O740        O  0.46283251  0.45915025  0.66367687    -0.54700
O741        O  0.42265278  0.46148080  0.66576987    -0.57900
In742      In  0.32010988  0.39410617  0.70374612     1.36900
C743        C  0.34266871  0.36972422  0.71074491     0.79700
O744        O  0.30623832  0.37223567  0.69164288    -0.58700
O745        O  0.30752183  0.39560465  0.67779375    -0.49600
C746        C  0.29326381  0.40278138  0.72311590     0.72400
O747        O  0.30230453  0.38979005  0.72605078    -0.44500
C748        C  0.34408838  0.41798077  0.69921630     0.77100
O749        O  0.33469140  0.37743801  0.72249174    -0.56300
O750        O  0.33569397  0.41161618  0.68704373    -0.46400
O751        O  0.33898960  0.37434501  0.69578918    -0.52800
C752        C  0.30261370  0.38024849  0.67816577     0.87300
O753        O  0.29856265  0.41204848  0.71104213    -0.54700
O754        O  0.33918252  0.41343113  0.71389356    -0.57900
In755      In  0.40823133  0.28055260  0.67838040     1.36900
C756        C  0.38414503  0.27342703  0.65550474     0.79700
O757        O  0.38618888  0.29216100  0.69247691    -0.58700
O758        O  0.40909529  0.30670314  0.69047539    -0.49600
C759        C  0.41673238  0.26134074  0.70540122     0.72400
O760        O  0.40429538  0.25787069  0.69577984    -0.44500
C761        C  0.43251263  0.28520562  0.65480468     0.77100
O762        O  0.39191838  0.26175018  0.66350180    -0.56300
O763        O  0.42595230  0.29731936  0.66311788    -0.46400
O764        O  0.38852794  0.28839718  0.65933943    -0.52800
C765        C  0.39386063  0.30591830  0.69574592     0.87300
O766        O  0.42558780  0.27392124  0.70062440    -0.54700
O767        O  0.42797888  0.27051953  0.65963968    -0.57900
In768      In  0.46626888  0.33872149  0.55772082     1.36900
C769        C  0.47342870  0.36289829  0.58044234     0.79700
O770        O  0.45461468  0.36066732  0.54358203    -0.58700
O771        O  0.44037654  0.33753407  0.54510027    -0.49600
C772        C  0.48569376  0.33013815  0.53093922     0.72400
O773        O  0.48898265  0.34273181  0.54040410    -0.44500
C774        C  0.46142134  0.31462539  0.58143070     0.77100
O775        O  0.48510083  0.35480166  0.57275770    -0.56300
O776        O  0.44933711  0.32116620  0.57304297    -0.46400
O777        O  0.45842480  0.35882400  0.57633671    -0.52800
C778        C  0.44105266  0.35280182  0.53994826     0.87300
O779        O  0.47320381  0.32118771  0.53577058    -0.54700
O780        O  0.47613950  0.31913724  0.57665517    -0.57900
In781      In  0.79525795  0.80590632  0.59074714     1.36900
C782        C  0.78811334  0.82851397  0.61504028     0.79700
O783        O  0.80717641  0.79207607  0.61276984    -0.58700
O784        O  0.82111956  0.79319585  0.58941910    -0.49600
C785        C  0.77590563  0.77909754  0.58211925     0.72400
O786        O  0.77251467  0.78860092  0.59466853    -0.44500
C787        C  0.80006693  0.82962682  0.56664260     0.77100
O788        O  0.77643321  0.82038615  0.60740471    -0.56300
O789        O  0.81214577  0.82134411  0.57330562    -0.46400
O790        O  0.80309173  0.82494337  0.61040753    -0.52800
C791        C  0.82064307  0.78831492  0.60479356     0.87300
O792        O  0.78845863  0.78390344  0.57323124    -0.54700
O793        O  0.78533855  0.82475164  0.57103742    -0.57900
In794      In  0.85327471  0.92689543  0.53285831     1.36900
C795        C  0.87762595  0.90447228  0.52548460     0.79700
O796        O  0.87528821  0.94078318  0.54470914    -0.58700
O797        O  0.85209749  0.93933181  0.55887471    -0.49600
C798        C  0.84455169  0.95377844  0.51365250     0.72400
O799        O  0.85730121  0.94450615  0.51039640    -0.44500
C800        C  0.82937381  0.90293474  0.53741134     0.77100
O801        O  0.86987619  0.91261556  0.51388625    -0.56300
O802        O  0.83574236  0.91133415  0.54957466    -0.46400
O803        O  0.87305448  0.90791403  0.54051835    -0.52800
C804        C  0.86741724  0.94435787  0.55828717     0.87300
O805        O  0.83550216  0.94869698  0.52598681    -0.54700
O806        O  0.83391530  0.90783721  0.52273242    -0.57900
In807      In  0.90850352  0.78082584  0.67880295     1.36900
C808        C  0.88413862  0.77375135  0.65626483     0.79700
O809        O  0.88663297  0.79242450  0.69309704    -0.58700
O810        O  0.90971833  0.80674340  0.69136241    -0.49600
C811        C  0.91712312  0.76142612  0.70560512     0.72400
O812        O  0.90443247  0.75821922  0.69623063    -0.44500
C813        C  0.93237193  0.78579133  0.65482789     0.77100
O814        O  0.89251040  0.76205244  0.66359908    -0.56300
O815        O  0.92583595  0.79782827  0.66328132    -0.46400
O816        O  0.88802686  0.78871217  0.66064233    -0.52800
C817        C  0.89446187  0.80603399  0.69659861     0.87300
O818        O  0.92618961  0.77377668  0.70063260    -0.54700
O819        O  0.92798628  0.77106203  0.65965991    -0.57900
In820      In  0.96637497  0.83905912  0.55763247     1.36900
C821        C  0.97341032  0.86334150  0.58030440     0.79700
O822        O  0.95490543  0.86090255  0.54320746    -0.58700
O823        O  0.94036652  0.83799449  0.54520891    -0.49600
C824        C  0.98574714  0.83034021  0.53081361     0.72400
O825        O  0.98908314  0.84293734  0.54026563    -0.44500
C826        C  0.96162392  0.81499059  0.58139954     0.77100
O827        O  0.98512659  0.85540648  0.57251856    -0.56300
O828        O  0.94949724  0.82180558  0.57330122    -0.46400
O829        O  0.95843829  0.85903310  0.57635096    -0.52800
C830        C  0.94120008  0.85317889  0.53982998     0.87300
O831        O  0.97321627  0.82144647  0.53567319    -0.54700
O832        O  0.97632906  0.81920495  0.57629707    -0.57900
In833      In  0.82067835  0.89408354  0.70373797     1.36900
C834        C  0.84311442  0.86966311  0.71091407     0.79700
O835        O  0.80649474  0.87216299  0.69213008    -0.58700
O836        O  0.80816365  0.89521557  0.67776606    -0.49600
C837        C  0.79379421  0.90289666  0.72292811     0.72400
O838        O  0.80335374  0.89044646  0.72651954    -0.44500
C839        C  0.84459165  0.91803337  0.69915027     0.77100
O840        O  0.83526852  0.87759978  0.72259289    -0.56300
O841        O  0.83659553  0.91121878  0.68695972    -0.46400
O842        O  0.83933919  0.87405173  0.69591125    -0.52800
C843        C  0.80297821  0.87995926  0.67849135     0.87300
O844        O  0.79858717  0.91161171  0.71024502    -0.54700
O845        O  0.83933755  0.91386296  0.71381575    -0.57900
In846      In  0.94151550  0.95214598  0.64597297     1.36900
C847        C  0.91871213  0.95922401  0.62187760     0.79700
O848        O  0.95535139  0.94028422  0.62394331    -0.58700
O849        O  0.95427579  0.92631293  0.64727845    -0.49600
C850        C  0.96838243  0.97152526  0.65421981     0.72400
O851        O  0.95894856  0.97465305  0.64154556    -0.44500
C852        C  0.91787252  0.94747709  0.67018052     0.77100
O853        O  0.92666608  0.97092875  0.62964848    -0.56300
O854        O  0.92597244  0.93534218  0.66339264    -0.46400
O855        O  0.92254595  0.94425588  0.62628682    -0.52800
C856        C  0.95914866  0.92682506  0.63189416     0.87300
O857        O  0.96347189  0.95923798  0.66341165    -0.54700
O858        O  0.92292912  0.96216236  0.66588058    -0.57900
In859      In  0.69113639  0.58863882  0.70363877     1.36900
C860        C  0.66850688  0.61286604  0.71087924     0.79700
O861        O  0.70530152  0.61050582  0.69189007    -0.58700
O862        O  0.70324634  0.58751626  0.67747689    -0.49600
C863        C  0.71810895  0.57997363  0.72279695     0.72400
O864        O  0.70870612  0.59259309  0.72617516    -0.44500
C865        C  0.66724959  0.56468073  0.69899876     0.77100
O866        O  0.67626909  0.60482701  0.72253959    -0.56300
O867        O  0.67569307  0.57106364  0.68687209    -0.46400
O868        O  0.67252910  0.60874512  0.69586320    -0.52800
C869        C  0.70856185  0.60272624  0.67817606     0.87300
O870        O  0.71312196  0.57102416  0.71035882    -0.54700
O871        O  0.67207555  0.56923999  0.71369417    -0.57900
In872      In  0.56989307  0.53106187  0.64572487     1.36900
C873        C  0.59261220  0.52411826  0.62146775     0.79700
O874        O  0.55580189  0.54260100  0.62366210    -0.58700
O875        O  0.55701729  0.55684466  0.64682293    -0.49600
C876        C  0.54322571  0.51151176  0.65434521     0.72400
O877        O  0.55275576  0.50821269  0.64178328    -0.44500
C878        C  0.59366916  0.53589272  0.66979673     0.77100
O879        O  0.58470163  0.51238540  0.62924080    -0.56300
O880        O  0.58539076  0.54798165  0.66313820    -0.46400
O881        O  0.58876898  0.53906770  0.62594021    -0.52800
C882        C  0.55202781  0.55614310  0.63148511     0.87300
O883        O  0.54795641  0.52406442  0.66326583    -0.54700
O884        O  0.58871951  0.52118801  0.66545610    -0.57900
In885      In  0.60349509  0.70194545  0.67910624     1.36900
C886        C  0.62761126  0.70939627  0.65636428     0.79700
O887        O  0.62538202  0.68957726  0.69271447    -0.58700
O888        O  0.60168947  0.67623554  0.69204900    -0.49600
C889        C  0.59503592  0.72139812  0.70591828     0.72400
O890        O  0.60811953  0.72411361  0.69693358    -0.44500
C891        C  0.57951137  0.69704521  0.65535065     0.77100
O892        O  0.61984526  0.72097233  0.66452399    -0.56300
O893        O  0.58640185  0.68496786  0.66344485    -0.46400
O894        O  0.62319068  0.69437879  0.65996951    -0.52800
C895        C  0.61713647  0.67635937  0.69669909     0.87300
O896        O  0.58559926  0.70947229  0.70060623    -0.54700
O897        O  0.58362071  0.71177529  0.66043957    -0.57900
In898      In  0.54536093  0.64418081  0.55794823     1.36900
C899        C  0.53777390  0.61981338  0.58030084     0.79700
O900        O  0.55736212  0.62236936  0.54392847    -0.58700
O901        O  0.57124376  0.64572531  0.54532101    -0.49600
C902        C  0.52600182  0.65272401  0.53111658     0.72400
O903        O  0.52276240  0.64008101  0.54053273    -0.44500
C904        C  0.55038244  0.66796614  0.58191378     0.77100
O905        O  0.52622911  0.62819034  0.57273031    -0.56300
O906        O  0.56244159  0.66084375  0.57399444    -0.46400
O907        O  0.55283495  0.62375375  0.57630210    -0.52800
C908        C  0.57082815  0.63040185  0.54030778     0.87300
O909        O  0.53843112  0.66173636  0.53600425    -0.54700
O910        O  0.53565235  0.66419882  0.57655515    -0.57900
In911      In  0.71633818  0.67708699  0.59063479     1.36900
C912        C  0.72336078  0.65452169  0.61497744     0.79700
O913        O  0.70480118  0.69149299  0.61249131    -0.58700
O914        O  0.69021916  0.68931117  0.58959504    -0.49600
C915        C  0.73561735  0.70389853  0.58191282     0.72400
O916        O  0.73907233  0.69438679  0.59443809    -0.44500
C917        C  0.71175060  0.65313954  0.56671816     0.77100
O918        O  0.73509680  0.66201280  0.60679817    -0.56300
O919        O  0.69959025  0.66148449  0.57316967    -0.46400
O920        O  0.70839658  0.65878845  0.61093912    -0.52800
C921        C  0.69104043  0.69474034  0.60478308     0.87300
O922        O  0.72303145  0.69909139  0.57306722    -0.54700
O923        O  0.72642335  0.65809912  0.57117413    -0.57900
In924      In  0.65841089  0.55614210  0.53273074     1.36900
C925        C  0.63422973  0.57888489  0.52565760     0.79700
O926        O  0.63657186  0.54179142  0.54431806    -0.58700
O927        O  0.65954398  0.54381227  0.55878887    -0.49600
C928        C  0.66730017  0.52940031  0.51339202     0.72400
O929        O  0.65442772  0.53854628  0.51023544    -0.44500
C930        C  0.68242968  0.57989647  0.53751591     0.77100
O931        O  0.64223504  0.57117850  0.51393221    -0.56300
O932        O  0.67583425  0.57158482  0.54962123    -0.46400
O933        O  0.63836887  0.57475893  0.54063645    -0.52800
C934        C  0.64433480  0.53846984  0.55802728     0.87300
O935        O  0.67633951  0.53452457  0.52571359    -0.54700
O936        O  0.67798490  0.57505129  0.52278962    -0.57900
In937      In  0.44132723  0.95242038  0.14561302     1.36900
C938        C  0.41891486  0.95959861  0.12116382     0.79700
O939        O  0.45540376  0.94055266  0.12372166    -0.58700
O940        O  0.45380222  0.92647355  0.14696839    -0.49600
C941        C  0.46828252  0.97155836  0.15430944     0.72400
O942        O  0.45891517  0.97493085  0.14164709    -0.44500
C943        C  0.41723696  0.94775904  0.16943401     0.77100
O944        O  0.42665124  0.97126933  0.12920289    -0.56300
O945        O  0.42553744  0.93563438  0.16287395    -0.46400
O946        O  0.42281850  0.94460910  0.12544000    -0.52800
C947        C  0.45892566  0.92700971  0.13166591     0.87300
O948        O  0.46324211  0.95916872  0.16328785    -0.54700
O949        O  0.42230806  0.96243957  0.16513744    -0.57900
In950      In  0.31978300  0.89467053  0.20326978     1.36900
C951        C  0.34260399  0.87065906  0.21067810     0.79700
O952        O  0.30586238  0.87257465  0.19166556    -0.58700
O953        O  0.30736334  0.89559842  0.17724169    -0.49600
C954        C  0.29284261  0.90335118  0.22248767     0.72400
O955        O  0.30228603  0.89076485  0.22588359    -0.44500
C956        C  0.34356629  0.91869989  0.19839915     0.77100
O957        O  0.33464413  0.87858898  0.22228599    -0.56300
O958        O  0.33530483  0.91200650  0.18631635    -0.46400
O959        O  0.33869566  0.87479733  0.19563810    -0.52800
C960        C  0.30230959  0.88030235  0.17799837     0.87300
O961        O  0.29773999  0.91223248  0.20996105    -0.54700
O962        O  0.33857998  0.91443170  0.21313301    -0.57900
In963      In  0.40814396  0.78173495  0.17926837     1.36900
C964        C  0.38391783  0.77431893  0.15664455     0.79700
O965        O  0.38648063  0.79359956  0.19367255    -0.58700
O966        O  0.40951901  0.80789944  0.19128137    -0.49600
C967        C  0.41679746  0.76249342  0.20617534     0.72400
O968        O  0.40387391  0.75946813  0.19706365    -0.44500
C969        C  0.43203119  0.78648214  0.15532287     0.77100
O970        O  0.39243879  0.76274381  0.16399561    -0.56300
O971        O  0.42538812  0.79860882  0.16355925    -0.46400
O972        O  0.38754147  0.78932120  0.16109527    -0.52800
C973        C  0.39434454  0.80729254  0.19676049     0.87300
O974        O  0.42600159  0.77463871  0.20095012    -0.54700
O975        O  0.42774739  0.77179610  0.16037086    -0.57900
In976      In  0.46612075  0.83901264  0.05787443     1.36900
C977        C  0.47334920  0.86323240  0.08054108     0.79700
O978        O  0.45466025  0.86085523  0.04341422    -0.58700
O979        O  0.44003345  0.83802114  0.04562316    -0.49600
C980        C  0.48547798  0.83020806  0.03109418     0.72400
O981        O  0.48882594  0.84283093  0.04050331    -0.44500
C982        C  0.46115491  0.81502576  0.08164880     0.77100
O983        O  0.48501172  0.85499584  0.07299423    -0.56300
O984        O  0.44909324  0.82181326  0.07343375    -0.46400
O985        O  0.45835433  0.85926190  0.07633889    -0.52800
C986        C  0.44088449  0.85318401  0.04018556     0.87300
O987        O  0.47293076  0.82134864  0.03596323    -0.54700
O988        O  0.47589942  0.81921204  0.07665186    -0.57900
In989      In  0.29538445  0.80593606  0.09064863     1.36900
C990        C  0.28790288  0.82834308  0.11496864     0.79700
O991        O  0.30745667  0.79218563  0.11261325    -0.58700
O992        O  0.32125517  0.79317960  0.08916491    -0.49600
C993        C  0.27616404  0.77900787  0.08224380     0.72400
O994        O  0.27295417  0.78837178  0.09494373    -0.44500
C995        C  0.30000768  0.82999982  0.06680388     0.77100
O996        O  0.27631733  0.82054196  0.10686362    -0.56300
O997        O  0.31217949  0.82196829  0.07361488    -0.46400
O998        O  0.30295599  0.82449320  0.11082739    -0.52800
C999        C  0.32086499  0.78836048  0.10457167     0.87300
O1000       O  0.28842463  0.78404191  0.07307022    -0.54700
O1001       O  0.28534271  0.82468290  0.07088168    -0.57900
In1002     In  0.35309343  0.92725814  0.03263147     1.36900
C1003       C  0.37736957  0.90466785  0.02547540     0.79700
O1004       O  0.37521814  0.94108758  0.04432723    -0.58700
O1005       O  0.35191399  0.94030480  0.05835505    -0.49600
C1006       C  0.34425197  0.95393950  0.01323430     0.72400
O1007       O  0.35701070  0.94467876  0.00998817    -0.44500
C1008       C  0.32912612  0.90341455  0.03752595     0.77100
O1009       O  0.36979570  0.91286820  0.01379335    -0.56300
O1010       O  0.33592116  0.91159853  0.04960553    -0.46400
O1011       O  0.37266825  0.90815099  0.04045693    -0.52800
C1012       C  0.36731828  0.94506841  0.05777155     0.87300
O1013       O  0.33525557  0.94894340  0.02562756    -0.54700
O1014       O  0.33332965  0.90844231  0.02278335    -0.57900
In1015     In  0.40826068  0.70281092  0.30827525     1.36900
C1016       C  0.38403250  0.71008963  0.33095438     0.79700
O1017       O  0.38634830  0.69114665  0.29405575    -0.58700
O1018       O  0.40931783  0.67669251  0.29611381    -0.49600
C1019       C  0.41695896  0.72197835  0.28132647     0.72400
O1020       O  0.40445276  0.72547119  0.29085529    -0.44500
C1021       C  0.43236238  0.69821560  0.33205811     0.77100
O1022       O  0.39186151  0.72171525  0.32294521    -0.56300
O1023       O  0.42573710  0.68606887  0.32385464    -0.46400
O1024       O  0.38839550  0.69509186  0.32718800    -0.52800
C1025       C  0.39410522  0.67743402  0.29077667     0.87300
O1026       O  0.42577443  0.70938415  0.28615567    -0.54700
O1027       O  0.42796844  0.71288417  0.32703429    -0.57900
In1028     In  0.46609837  0.64461791  0.42908624     1.36900
C1029       C  0.47362931  0.62052212  0.40642168     0.79700
O1030       O  0.45450894  0.62250129  0.44301887    -0.58700
O1031       O  0.44007293  0.64550801  0.44151693    -0.49600
C1032       C  0.48536482  0.65309494  0.45600995     0.72400
O1033       O  0.48870264  0.64055125  0.44649912    -0.44500
C1034       C  0.46131773  0.66880383  0.40542894     0.77100
O1035       O  0.48517066  0.62845226  0.41445338    -0.56300
O1036       O  0.44921059  0.66217549  0.41370838    -0.46400
O1037       O  0.45856157  0.62479195  0.41008238    -0.52800
C1038       C  0.44084585  0.63021928  0.44659050     0.87300
O1039       O  0.47289455  0.66208012  0.45116098    -0.54700
O1040       O  0.47602606  0.66433634  0.41029368    -0.57900
In1041     In  0.32045011  0.58941849  0.28288499     1.36900
C1042       C  0.34277398  0.61392839  0.27576532     0.79700
O1043       O  0.30639024  0.61130478  0.29476914    -0.58700
O1044       O  0.30788090  0.58807153  0.30884274    -0.49600
C1045       C  0.29358193  0.58051510  0.26369673     0.72400
O1046       O  0.30279195  0.59329246  0.26039600    -0.44500
C1047       C  0.34469418  0.56574035  0.28749454     0.77100
O1048       O  0.33499211  0.60598447  0.26404680    -0.56300
O1049       O  0.33627029  0.57212105  0.29964336    -0.46400
O1050       O  0.33894275  0.60953469  0.29075300    -0.52800
C1051       C  0.30281630  0.60337979  0.30831568     0.87300
O1052       O  0.29874233  0.57152519  0.27603875    -0.54700
O1053       O  0.33970479  0.57017461  0.27281100    -0.57900
In1054     In  0.44189407  0.53183930  0.34088396     1.36900
C1055       C  0.41909764  0.52491645  0.36509531     0.79700
O1056       O  0.45615399  0.54341524  0.36281967    -0.58700
O1057       O  0.45442139  0.55779596  0.33978144    -0.49600
C1058       C  0.46866736  0.51231477  0.33244064     0.72400
O1059       O  0.45922937  0.50918806  0.34511000    -0.44500
C1060       C  0.41819807  0.53648077  0.31666462     0.77100
O1061       O  0.42706878  0.51318661  0.35737429    -0.56300
O1062       O  0.42654586  0.54859453  0.32317903    -0.46400
O1063       O  0.42291239  0.53986160  0.36059207    -0.52800
C1064       C  0.45967125  0.55703997  0.35502861     0.87300
O1065       O  0.46381114  0.52469450  0.32333704    -0.54700
O1066       O  0.42303934  0.52179805  0.32122715    -0.57900
In1067     In  0.29551189  0.67717678  0.39634832     1.36900
C1068       C  0.28829485  0.65461902  0.37206603     0.79700
O1069       O  0.30736263  0.69102697  0.37429675    -0.58700
O1070       O  0.32120911  0.69022930  0.39771468    -0.49600
C1071       C  0.27626323  0.70400512  0.40502916     0.72400
O1072       O  0.27297319  0.69468881  0.39231299    -0.44500
C1073       C  0.30022079  0.65323057  0.42027111     0.77100
O1074       O  0.27662545  0.66266726  0.37982354    -0.56300
O1075       O  0.31236452  0.66139006  0.41356059    -0.46400
O1076       O  0.30329651  0.65827304  0.37655645    -0.52800
C1077       C  0.32071488  0.69506381  0.38232069     0.87300
O1078       O  0.28860157  0.69895035  0.41408492    -0.54700
O1079       O  0.28552745  0.65836365  0.41604477    -0.57900
In1080     In  0.35337783  0.55610417  0.45440556     1.36900
C1081       C  0.37748447  0.57881188  0.46172324     0.79700
O1082       O  0.37538924  0.54216518  0.44256277    -0.58700
O1083       O  0.35217089  0.54353199  0.42844039    -0.49600
C1084       C  0.34481194  0.52927484  0.47373396     0.72400
O1085       O  0.35774672  0.53837719  0.47672595    -0.44500
C1086       C  0.32928068  0.57983511  0.44955783     0.77100
O1087       O  0.36953426  0.57094742  0.47337939    -0.56300
O1088       O  0.33623931  0.57182357  0.43745189    -0.46400
O1089       O  0.37323351  0.57494750  0.44671010    -0.52800
C1090       C  0.36752750  0.53859054  0.42898105     0.87300
O1091       O  0.33555204  0.53449382  0.46161298    -0.54700
O1092       O  0.33338175  0.57467571  0.46428329    -0.57900
In1093     In  0.19159106  0.58934288  0.20403241     1.36900
C1094       C  0.16906690  0.61375325  0.21095922     0.79700
O1095       O  0.20565076  0.61110503  0.19197710    -0.58700
O1096       O  0.20455750  0.58761971  0.17829154    -0.49600
C1097       C  0.21822195  0.58067370  0.22364667     0.72400
O1098       O  0.20909143  0.59360787  0.22657020    -0.44500
C1099       C  0.16750794  0.56560048  0.19922555     0.77100
O1100       O  0.17679732  0.60584875  0.22274025    -0.56300
O1101       O  0.17575733  0.57226718  0.18711838    -0.46400
O1102       O  0.17305769  0.60938451  0.19600761    -0.52800
C1103       C  0.20947061  0.60297631  0.17862083     0.87300
O1104       O  0.21311885  0.57146565  0.21144458    -0.54700
O1105       O  0.17259249  0.56979307  0.21394738    -0.57900
In1106     In  0.07018445  0.53148903  0.14589099     1.36900
C1107       C  0.09270047  0.52418397  0.12156331     0.79700
O1108       O  0.05601455  0.54315195  0.12393165    -0.58700
O1109       O  0.05761051  0.55741294  0.14706245    -0.49600
C1110       C  0.04338269  0.51217738  0.15463673     0.72400
O1111       O  0.05292786  0.50869919  0.14213705    -0.44500
C1112       C  0.09411485  0.53638820  0.16981753     0.77100
O1113       O  0.08499044  0.51256077  0.12969073    -0.56300
O1114       O  0.08589225  0.54844983  0.16305359    -0.46400
O1115       O  0.08871324  0.53919527  0.12568092    -0.52800
C1116       C  0.05245947  0.55674645  0.13177604     0.87300
O1117       O  0.04815620  0.52479475  0.16343999    -0.54700
O1118       O  0.08907209  0.52167203  0.16562845    -0.57900
In1119     In  0.04543153  0.64439816  0.05763547     1.36900
C1120       C  0.03809201  0.62024950  0.08033282     0.79700
O1121       O  0.05728699  0.62232260  0.04384489    -0.58700
O1122       O  0.07132681  0.64558329  0.04490139    -0.49600
C1123       C  0.02598744  0.65296453  0.03082616     0.72400
O1124       O  0.02268498  0.64041427  0.04034840    -0.44500
C1125       C  0.05010284  0.66852394  0.08138449     0.77100
O1126       O  0.02648065  0.62799949  0.07221008    -0.56300
O1127       O  0.06225382  0.66166627  0.07336073    -0.46400
O1128       O  0.05311136  0.62468682  0.07670313    -0.52800
C1129       C  0.07078728  0.63021098  0.04005382     0.87300
O1130       O  0.03856611  0.66185105  0.03556227    -0.54700
O1131       O  0.03542196  0.66431060  0.07622556    -0.57900
In1132     In  0.10347364  0.70260890  0.17840834     1.36900
C1133       C  0.12775943  0.71005219  0.15591085     0.79700
O1134       O  0.12543281  0.69049079  0.19212971    -0.58700
O1135       O  0.10204117  0.67665133  0.19092350    -0.49600
C1136       C  0.09509343  0.72174440  0.20547012     0.72400
O1137       O  0.10768948  0.72506367  0.19600120    -0.44500
C1138       C  0.07942063  0.69801313  0.15454800     0.77100
O1139       O  0.11978136  0.72164259  0.16383771    -0.56300
O1140       O  0.08633558  0.68585466  0.16249241    -0.46400
O1141       O  0.12347320  0.69502747  0.15964009    -0.52800
C1142       C  0.11742139  0.67703771  0.19580403     0.87300
O1143       O  0.08604428  0.70937326  0.20051784    -0.54700
O1144       O  0.08354415  0.71266973  0.15982748    -0.57900
In1145     In  0.21650570  0.67703990  0.09092912     1.36900
C1146       C  0.22366952  0.65434404  0.11507448     0.79700
O1147       O  0.20454782  0.69091448  0.11288270    -0.58700
O1148       O  0.19084834  0.69016974  0.08936829    -0.49600
C1149       C  0.23630789  0.70358276  0.08255300     0.72400
O1150       O  0.23897098  0.69450391  0.09557547    -0.44500
C1151       C  0.21123071  0.65315978  0.06706435     0.77100
O1152       O  0.23534811  0.66178573  0.10676676    -0.56300
O1153       O  0.19929547  0.66176237  0.07360233    -0.46400
O1154       O  0.20867192  0.65869363  0.11122861    -0.52800
C1155       C  0.19123793  0.69495227  0.10478317     0.87300
O1156       O  0.22429897  0.69846079  0.07310785    -0.54700
O1157       O  0.22603667  0.65779128  0.07144809    -0.57900
In1158     In  0.15814627  0.55581223  0.03248318     1.36900
C1159       C  0.13384252  0.57833038  0.02519778     0.79700
O1160       O  0.13620725  0.54170101  0.04421101    -0.58700
O1161       O  0.15931414  0.54341763  0.05850012    -0.49600
C1162       C  0.16694247  0.52896896  0.01324436     0.72400
O1163       O  0.15428797  0.53833455  0.00987473    -0.44500
C1164       C  0.18192541  0.57984458  0.03734874     0.77100
O1165       O  0.14182203  0.57049155  0.01354090    -0.56300
O1166       O  0.17543343  0.57139937  0.04941164    -0.46400
O1167       O  0.13807276  0.57443734  0.04021561    -0.52800
C1168       C  0.14404159  0.53825332  0.05784856     0.87300
O1169       O  0.17587684  0.53395050  0.02570023    -0.54700
O1170       O  0.17759445  0.57494143  0.02260650    -0.57900
In1171     In  0.06997099  0.45177489  0.84080498     1.36900
C1172       C  0.09251346  0.45906909  0.86509788     0.79700
O1173       O  0.05575636  0.43984248  0.86255015    -0.58700
O1174       O  0.05763904  0.42578794  0.83930151    -0.49600
C1175       C  0.04308882  0.47104439  0.83228474     0.72400
O1176       O  0.05247128  0.47429958  0.84496155    -0.44500
C1177       C  0.09379753  0.44706051  0.81675843     0.77100
O1178       O  0.08491158  0.47070076  0.85687765    -0.56300
O1179       O  0.08578439  0.43493216  0.82364214    -0.46400
O1180       O  0.08839176  0.44406716  0.86110307    -0.52800
C1181       C  0.05237722  0.42629318  0.85455643     0.87300
O1182       O  0.04803312  0.45865612  0.82324824    -0.54700
O1183       O  0.08861350  0.46173945  0.82092770    -0.57900
In1184     In  0.19113954  0.39409231  0.78270364     1.36900
C1185       C  0.16862192  0.36973674  0.77561837     0.79700
O1186       O  0.20506739  0.37210942  0.79462355    -0.58700
O1187       O  0.20391675  0.39540652  0.80858832    -0.49600
C1188       C  0.21786882  0.40283502  0.76321883     0.72400
O1189       O  0.20856793  0.39009226  0.76004299    -0.44500
C1190       C  0.16713146  0.41799202  0.78728996     0.77100
O1191       O  0.17681833  0.37728347  0.76392146    -0.56300
O1192       O  0.17543709  0.41148902  0.79945045    -0.46400
O1193       O  0.17207894  0.37449369  0.79058507    -0.52800
C1194       C  0.20881995  0.38004922  0.80810727     0.87300
O1195       O  0.21289181  0.41184807  0.77562283    -0.54700
O1196       O  0.17213511  0.41356744  0.77260758    -0.57900
In1197     In  0.10342376  0.28061652  0.80805338     1.36900
C1198       C  0.12781327  0.27338157  0.83050073     0.79700
O1199       O  0.12542375  0.29253157  0.79417394    -0.58700
O1200       O  0.10213150  0.30652951  0.79542299    -0.49600
C1201       C  0.09489526  0.26122878  0.78121183     0.72400
O1202       O  0.10736717  0.25783748  0.79081490    -0.44500
C1203       C  0.07943014  0.28519826  0.83198954     0.77100
O1204       O  0.12026560  0.26176880  0.82221043    -0.56300
O1205       O  0.08598714  0.29734024  0.82372548    -0.46400
O1206       O  0.12303347  0.28836179  0.82718320    -0.52800
C1207       C  0.11748658  0.30602763  0.79048431     0.87300
O1208       O  0.08599704  0.27380298  0.78594407    -0.54700
O1209       O  0.08384754  0.27053212  0.82697547    -0.57900
In1210     In  0.04504730  0.33887103  0.92880792     1.36900
C1211       C  0.03782886  0.36298692  0.90607775     0.79700
O1212       O  0.05729545  0.36072303  0.94254448    -0.58700
O1213       O  0.07091663  0.33718509  0.94145914    -0.49600
C1214       C  0.02567374  0.33068966  0.95576564     0.72400
O1215       O  0.02254479  0.34334552  0.94631961    -0.44500
C1216       C  0.04978868  0.31477510  0.90505521     0.77100
O1217       O  0.02615434  0.35481845  0.91367598    -0.56300
O1218       O  0.06190945  0.32173442  0.91301731    -0.46400
O1219       O  0.05282650  0.35904488  0.91031542    -0.52800
C1220       C  0.07066344  0.35257216  0.94629275     0.87300
O1221       O  0.03798524  0.32152196  0.95085824    -0.54700
O1222       O  0.03508937  0.31888966  0.91026026    -0.57900
In1223     In  0.21654451  0.30590863  0.89589472     1.36900
C1224       C  0.22354679  0.32871173  0.87176721     0.79700
O1225       O  0.20485036  0.29204952  0.87377221    -0.58700
O1226       O  0.19082865  0.29287656  0.89708831    -0.49600
C1227       C  0.23618807  0.27930030  0.90442796     0.72400
O1228       O  0.23925102  0.28864182  0.89167767    -0.44500
C1229       C  0.21151191  0.32963614  0.91992557     0.77100
O1230       O  0.23528400  0.32080980  0.87956357    -0.56300
O1231       O  0.19951172  0.32105959  0.91349056    -0.46400
O1232       O  0.20857565  0.32480951  0.87615292    -0.52800
C1233       C  0.19141803  0.28806756  0.88169144     0.87300
O1234       O  0.22385426  0.28420446  0.91357043    -0.54700
O1235       O  0.22627947  0.32501044  0.91539127    -0.57900
In1236     In  0.15801884  0.42685104  0.95385771     1.36900
C1237       C  0.13391411  0.40410570  0.96110378     0.79700
O1238       O  0.13614337  0.44108672  0.94217373    -0.58700
O1239       O  0.15920913  0.43916332  0.92781533    -0.49600
C1240       C  0.16672251  0.45367444  0.97315423     0.72400
O1241       O  0.15402301  0.44434473  0.97644298    -0.44500
C1242       C  0.18196485  0.40301575  0.94894482     0.77100
O1243       O  0.14213316  0.41165536  0.97277659    -0.56300
O1244       O  0.17527326  0.41128661  0.93686554    -0.46400
O1245       O  0.13776915  0.40843144  0.94610651    -0.52800
C1246       C  0.14397529  0.44445585  0.92850990     0.87300
O1247       O  0.17569733  0.44869879  0.96072121    -0.54700
O1248       O  0.17772052  0.40799670  0.96368403    -0.57900
C1249       C  0.19235733  0.38804214  0.94596854    -0.16300
C1250       C  0.19886351  0.37445674  0.94236722     0.07700
C1251       C  0.20462821  0.35816409  0.93674120     0.09600
C1252       C  0.20837834  0.34458393  0.93030901    -0.17200
C1253       C  0.08483003  0.36068696  0.95468332    -0.16300
C1254       C  0.09651058  0.36924021  0.95997968     0.07700
C1255       C  0.10988313  0.38078953  0.96369007     0.09600
C1256       C  0.12104685  0.39140238  0.96420997    -0.17200
C1257       C  0.06896568  0.28806673  0.84696027    -0.16300
C1258       C  0.06234343  0.29174042  0.86048860     0.07700
C1259       C  0.05644498  0.29756841  0.87668406     0.09600
C1260       C  0.05269349  0.30420136  0.89018158    -0.17200
C1261       C  0.14102597  0.27020765  0.84283848    -0.16300
C1262       C  0.15242247  0.27058127  0.85321787     0.07700
C1263       C  0.16590994  0.27416845  0.86467961     0.09600
C1264       C  0.17751658  0.27949045  0.87332092    -0.17200
C1265       C  0.21724733  0.37173828  0.82216438    -0.16300
C1266       C  0.22249847  0.36314371  0.83385305     0.07700
C1267       C  0.22610686  0.35170112  0.84736794     0.09600
C1268       C  0.22657642  0.34125471  0.85870571    -0.17200
C1269       C  0.15623118  0.35655343  0.77256525    -0.16300
C1270       C  0.14583372  0.34518662  0.77307781     0.07700
C1271       C  0.13439343  0.33170950  0.77675997     0.09600
C1272       C  0.12579342  0.32006207  0.78205623    -0.17200
C1273       C  0.03471075  0.37590417  0.89342849    -0.16300
C1274       C  0.03514295  0.38710609  0.88285117     0.07700
C1275       C  0.03872279  0.40051229  0.87130707     0.09600
C1276       C  0.04396382  0.41218996  0.86272625    -0.17200
C1277       C  0.15211305  0.42838100  0.79015230    -0.16300
C1278       C  0.13852212  0.43488026  0.79380048     0.07700
C1279       C  0.12225004  0.44058543  0.79959984     0.09600
C1280       C  0.10870558  0.44419930  0.80621365    -0.17200
C1281       C  0.13566634  0.45290853  0.91449170    -0.16300
C1282       C  0.12705637  0.45820132  0.90284521     0.07700
C1283       C  0.11554863  0.46182226  0.88940465     0.09600
C1284       C  0.10504299  0.46223981  0.87812611    -0.17200
C1285       C  0.17005836  0.46936349  0.98229434    -0.16300
C1286       C  0.17137426  0.48310747  0.98929461     0.07700
C1287       C  0.17145123  0.49945193  0.99721700     0.09600
C1288       C  0.17024039  0.51322594  0.00417927    -0.17200
C1289       C  0.19218082  0.59490478  0.04038870    -0.16300
C1290       C  0.19857712  0.60849341  0.04417875     0.07700
C1291       C  0.20427353  0.62472561  0.05006338     0.09600
C1292       C  0.20801146  0.63823809  0.05665280    -0.17200
C1293       C  0.14087809  0.71327086  0.14348339    -0.16300
C1294       C  0.15221410  0.71278042  0.13303829     0.07700
C1295       C  0.16565266  0.70901130  0.12156816     0.09600
C1296       C  0.17726106  0.70358118  0.11298713    -0.17200
C1297       C  0.08477591  0.62183338  0.03159675    -0.16300
C1298       C  0.09632515  0.61311256  0.02626092     0.07700
C1299       C  0.10963007  0.60147155  0.02254486     0.09600
C1300       C  0.12083036  0.59088559  0.02204989    -0.17200
C1301       C  0.06889576  0.69519862  0.13961445    -0.16300
C1302       C  0.06231121  0.69153330  0.12606871     0.07700
C1303       C  0.05655508  0.68570593  0.10982387     0.09600
C1304       C  0.05294302  0.67907822  0.09628663    -0.17200
C1305       C  0.03488044  0.60719050  0.09282921    -0.16300
C1306       C  0.03522749  0.59586879  0.10329247     0.07700
C1307       C  0.03875032  0.58238684  0.11478794     0.09600
C1308       C  0.04399065  0.57073429  0.12342285    -0.17200
C1309       C  0.10517355  0.52098336  0.10847773    -0.16300
C1310       C  0.11561653  0.52129333  0.09713262     0.07700
C1311       C  0.12708093  0.52473486  0.08360432     0.09600
C1312       C  0.13569373  0.52989073  0.07189769    -0.17200
C1313       C  0.22680591  0.64175108  0.12804613    -0.16300
C1314       C  0.22649387  0.63122916  0.13930786     0.07700
C1315       C  0.22308114  0.61970589  0.15278467     0.09600
C1316       C  0.21792434  0.61111714  0.16450470    -0.17200
C1317       C  0.15247888  0.55526319  0.19628179    -0.16300
C1318       C  0.13889800  0.54877753  0.19259225     0.07700
C1319       C  0.12263712  0.54303861  0.18680292     0.09600
C1320       C  0.10908083  0.53936504  0.18025042    -0.17200
C1321       C  0.12568400  0.66294677  0.20418398    -0.16300
C1322       C  0.13435865  0.65136126  0.20950409     0.07700
C1323       C  0.14596847  0.63804898  0.21328101     0.09600
C1324       C  0.15652682  0.62682912  0.21390292    -0.17200
C1325       C  0.30307665  0.63822150  0.43067235    -0.16300
C1326       C  0.30661798  0.62461960  0.43719497     0.07700
C1327       C  0.31225268  0.60831589  0.44295500     0.09600
C1328       C  0.31876630  0.59474564  0.44662654    -0.17200
C1329       C  0.40657840  0.52188183  0.37819402    -0.16300
C1330       C  0.39613377  0.52215887  0.38955013     0.07700
C1331       C  0.38463161  0.52541595  0.40311283     0.09600
C1332       C  0.37594691  0.53038261  0.41486197    -0.17200
C1333       C  0.27780230  0.57714473  0.25469807    -0.16300
C1334       C  0.26398805  0.57590505  0.24779730     0.07700
C1335       C  0.24760606  0.57598687  0.23991792     0.09600
C1336       C  0.23386059  0.57732420  0.23289802    -0.17200
C1337       C  0.29442017  0.61167417  0.32239463    -0.16300
C1338       C  0.28919754  0.62027803  0.33408658     0.07700
C1339       C  0.28561399  0.63173324  0.34759436     0.09600
C1340       C  0.28517261  0.64216455  0.35894521    -0.17200
C1341       C  0.40325977  0.53941133  0.30615943    -0.16300
C1342       C  0.38968908  0.54312152  0.29963699     0.07700
C1343       C  0.37339824  0.54893103  0.29395649     0.09600
C1344       C  0.35978830  0.55544128  0.29036749    -0.17200
C1345       C  0.39057356  0.59127478  0.46485162    -0.16300
C1346       C  0.40192592  0.60168083  0.46428058     0.07700
C1347       C  0.41536666  0.61311530  0.46046604     0.09600
C1348       C  0.42693554  0.62175844  0.45507013    -0.17200
C1349       C  0.47698821  0.60744114  0.39399660    -0.16300
C1350       C  0.47681341  0.59608211  0.38357800     0.07700
C1351       C  0.47342706  0.58258261  0.37207864     0.09600
C1352       C  0.46819953  0.57096067  0.36340883    -0.17200
C1353       C  0.38574591  0.66343438  0.28235014    -0.16300
C1354       C  0.37711790  0.65182767  0.27701729     0.07700
C1355       C  0.36562836  0.63841349  0.27327198     0.09600
C1356       C  0.35518438  0.62709290  0.27271763    -0.17200
C1357       C  0.45839267  0.67935455  0.39054263    -0.16300
C1358       C  0.45484130  0.68594947  0.37697400     0.07700
C1359       C  0.44925338  0.69172186  0.36065335     0.09600
C1360       C  0.44280514  0.69535909  0.34703610    -0.17200
C1361       C  0.37099391  0.71326143  0.34349759    -0.16300
C1362       C  0.35969708  0.71284226  0.35399575     0.07700
C1363       C  0.34624192  0.70916783  0.36548365     0.09600
C1364       C  0.33463062  0.70374721  0.37406753    -0.17200
C1365       C  0.26715934  0.76320725  0.07913643    -0.16300
C1366       C  0.26031726  0.74937506  0.07801591     0.07700
C1367       C  0.25254864  0.73296952  0.07813224     0.09600
C1368       C  0.24558867  0.71920683  0.07937279    -0.17200
C1369       C  0.31865124  0.88848870  0.04051688    -0.16300
C1370       C  0.31210296  0.87494210  0.04421014     0.07700
C1371       C  0.30638089  0.85866815  0.04997115     0.09600
C1372       C  0.30280042  0.84505756  0.05645421    -0.17200
C1373       C  0.42691329  0.86160816  0.03175581    -0.16300
C1374       C  0.41530499  0.87029121  0.02649213     0.07700
C1375       C  0.40186888  0.88180848  0.02286531     0.09600
C1376       C  0.39052623  0.89224410  0.02239156    -0.17200
C1377       C  0.42014753  0.75336475  0.22188372    -0.16300
C1378       C  0.42143894  0.74628700  0.23560407     0.07700
C1379       C  0.42148049  0.73820274  0.25188652     0.09600
C1380       C  0.42024763  0.73111023  0.26560512    -0.17200
C1381       C  0.45815754  0.80463941  0.09662077    -0.16300
C1382       C  0.45452627  0.79826782  0.11026716     0.07700
C1383       C  0.44886698  0.79279473  0.12665542     0.09600
C1384       C  0.44240709  0.78933882  0.14030827    -0.17200
C1385       C  0.33493729  0.77995577  0.11285591    -0.16300
C1386       C  0.34653829  0.77478869  0.12161233     0.07700
C1387       C  0.35985143  0.77136112  0.13334170     0.09600
C1388       C  0.37100853  0.77108145  0.14399110    -0.17200
C1389       C  0.28463553  0.84081952  0.12801785    -0.16300
C1390       C  0.28501796  0.85137802  0.13924109     0.07700
C1391       C  0.28861683  0.86303899  0.15254667     0.09600
C1392       C  0.29389432  0.87182202  0.16406439    -0.17200
C1393       C  0.38609422  0.82143775  0.20506084    -0.16300
C1394       C  0.37744726  0.83313516  0.21017759     0.07700
C1395       C  0.36585385  0.84655761  0.21360474     0.09600
C1396       C  0.35526044  0.85775947  0.21391464    -0.17200
C1397       C  0.47647996  0.87629115  0.09305007    -0.16300
C1398       C  0.47607910  0.88765282  0.10346357     0.07700
C1399       C  0.47254723  0.90121347  0.11485645     0.09600
C1400       C  0.46733390  0.91293829  0.12340459    -0.17200
C1401       C  0.40214846  0.94486962  0.17972945    -0.16300
C1402       C  0.38850634  0.94124558  0.18614312     0.07700
C1403       C  0.37216868  0.93555525  0.19178667     0.09600
C1404       C  0.35855771  0.92909054  0.19542028    -0.17200
C1405       C  0.37573046  0.95357957  0.07169201    -0.16300
C1406       C  0.38445320  0.95882540  0.08327500     0.07700
C1407       C  0.39601789  0.96234749  0.09669794     0.09600
C1408       C  0.40648338  0.96272164  0.10801925    -0.17200
C1409       C  0.69296150  0.59476181  0.54047930    -0.16300
C1410       C  0.69956089  0.60827641  0.54414560     0.07700
C1411       C  0.70531172  0.62452942  0.54987350     0.09600
C1412       C  0.70890751  0.63812118  0.55635871    -0.17200
C1413       C  0.51678957  0.65596539  0.51544337    -0.16300
C1414       C  0.50967624  0.65723254  0.50174399     0.07700
C1415       C  0.50159527  0.65733979  0.48546963     0.09600
C1416       C  0.49451053  0.65623095  0.47174210    -0.17200
C1417       C  0.62127069  0.59151838  0.52261216    -0.16300
C1418       C  0.61004738  0.60207801  0.52308049     0.07700
C1419       C  0.59662847  0.61361697  0.52667366     0.09600
C1420       C  0.58494319  0.62220929  0.53190498    -0.17200
C1421       C  0.56906119  0.69407688  0.64042526    -0.16300
C1422       C  0.56258234  0.69043372  0.62683801     0.07700
C1423       C  0.55693556  0.68476936  0.61052020     0.09600
C1424       C  0.55333102  0.67832266  0.59690765    -0.17200
C1425       C  0.67706083  0.70319598  0.61319546    -0.16300
C1426       C  0.66545047  0.70850435  0.62186678     0.07700
C1427       C  0.65200129  0.71217352  0.63338149     0.09600
C1428       C  0.64067837  0.71262075  0.64385761    -0.17200
C1429       C  0.53445075  0.60663850  0.59263135    -0.16300
C1430       C  0.53475322  0.59521599  0.60297902     0.07700
C1431       C  0.53826086  0.58168054  0.61440586     0.09600
C1432       C  0.54351091  0.57004922  0.62305757    -0.17200
C1433       C  0.60512471  0.52109123  0.60836963    -0.16300
C1434       C  0.61562553  0.52145771  0.59707510     0.07700
C1435       C  0.62722052  0.52490504  0.58365403     0.09600
C1436       C  0.63594593  0.53006867  0.57203191    -0.17200
C1437       C  0.72637900  0.64193695  0.62798577    -0.16300
C1438       C  0.72586700  0.63136774  0.63919622     0.07700
C1439       C  0.72220518  0.61976056  0.65253540     0.09600
C1440       C  0.71693404  0.61107236  0.66413097    -0.17200
C1441       C  0.65224112  0.55431713  0.69607392    -0.16300
C1442       C  0.63861055  0.54791496  0.69243119     0.07700
C1443       C  0.62226083  0.54236038  0.68672268     0.09600
C1444       C  0.60864302  0.53882209  0.68022676    -0.17200
C1445       C  0.62521393  0.66219414  0.70510713    -0.16300
C1446       C  0.63378139  0.65047545  0.71028595     0.07700
C1447       C  0.64534264  0.63704586  0.71373287     0.09600
C1448       C  0.65591016  0.62582812  0.71404830    -0.17200
C1449       C  0.85954810  0.92851013  0.69637970    -0.16300
C1450       C  0.87311889  0.93510111  0.69286155     0.07700
C1451       C  0.88939847  0.94091707  0.68722701     0.09600
C1452       C  0.90296499  0.94459666  0.68070943    -0.17200
C1453       C  0.97647817  0.87642538  0.59280986    -0.16300
C1454       C  0.97614940  0.88772813  0.60329231     0.07700
C1455       C  0.97273634  0.90117762  0.61485312     0.09600
C1456       C  0.96757328  0.91281588  0.62354796    -0.17200
C1457       C  0.88609469  0.82000252  0.70506646    -0.16300
C1458       C  0.87741473  0.83163716  0.71025847     0.07700
C1459       C  0.86590796  0.84511950  0.71370955     0.09600
C1460       C  0.85549720  0.85648494  0.71404609    -0.17200
C1461       C  0.94276670  0.78880836  0.63983882    -0.16300
C1462       C  0.94929966  0.79240090  0.62624687     0.07700
C1463       C  0.95506606  0.79802923  0.60993561     0.09600
C1464       C  0.95872512  0.80451526  0.59634300    -0.17200
C1465       C  0.87575395  0.95277136  0.57231190    -0.16300
C1466       C  0.88434264  0.95807660  0.58396742     0.07700
C1467       C  0.89576608  0.96176707  0.59746095     0.09600
C1468       C  0.90619500  0.96227656  0.60880718    -0.17200
C1469       C  0.89082519  0.89214821  0.52223575    -0.16300
C1470       C  0.90221103  0.88176180  0.52254123     0.07700
C1471       C  0.91568029  0.87026127  0.52604678     0.09600
C1472       C  0.92727854  0.86157534  0.53131089    -0.17200
C1473       C  0.74474097  0.71961089  0.57866644    -0.16300
C1474       C  0.75175664  0.73335590  0.57748904     0.07700
C1475       C  0.75972411  0.74967414  0.57757442     0.09600
C1476       C  0.76674492  0.76340748  0.57885959    -0.17200
C1477       C  0.83468932  0.77988909  0.61308038    -0.16300
C1478       C  0.84634897  0.77465287  0.62170689     0.07700
C1479       C  0.85979140  0.77110115  0.63323677     0.09600
C1480       C  0.87107676  0.77068665  0.64373787    -0.17200
C1481       C  0.80306951  0.84451433  0.55613276    -0.16300
C1482       C  0.80678610  0.85805012  0.54958945     0.07700
C1483       C  0.81253873  0.87431795  0.54387967     0.09600
C1484       C  0.81902124  0.88791220  0.54027469    -0.17200
C1485       C  0.78502723  0.84095876  0.62817873    -0.16300
C1486       C  0.78550783  0.85140729  0.63950849     0.07700
C1487       C  0.78917258  0.86291730  0.65293779     0.09600
C1488       C  0.79448870  0.87158171  0.66453306    -0.17200
C1489       C  0.44300054  0.28813043  0.63987779    -0.16300
C1490       C  0.44942826  0.29179297  0.62626156     0.07700
C1491       C  0.45494989  0.29755392  0.60992107     0.09600
C1492       C  0.45846443  0.30412083  0.59633409    -0.17200
C1493       C  0.23355435  0.40615222  0.75401822    -0.16300
C1494       C  0.24732529  0.40741387  0.74702148     0.07700
C1495       C  0.26371906  0.40740427  0.73914488     0.09600
C1496       C  0.27751949  0.40612148  0.73220930    -0.17200
C1497       C  0.35505149  0.35649968  0.71372498    -0.16300
C1498       C  0.36540209  0.34508194  0.71313865     0.07700
C1499       C  0.37678950  0.33156190  0.70939879     0.09600
C1500       C  0.38540264  0.31991602  0.70410076    -0.17200
C1501       C  0.48365555  0.48041991  0.65752582    -0.16300
C1502       C  0.49741593  0.48741432  0.65875963     0.07700
C1503       C  0.51378570  0.49530127  0.65876934     0.09600
C1504       C  0.52755129  0.50228958  0.65755408    -0.17200
C1505       C  0.47658563  0.37589108  0.59302271    -0.16300
C1506       C  0.47631213  0.38714214  0.60356434     0.07700
C1507       C  0.47289640  0.40057262  0.61515141     0.09600
C1508       C  0.46767875  0.41222234  0.62380383    -0.17200
C1509       C  0.40269709  0.44386909  0.68053867    -0.16300
C1510       C  0.38911318  0.44031196  0.68709204     0.07700
C1511       C  0.37276943  0.43472969  0.69278495     0.09600
C1512       C  0.35912572  0.42832247  0.69636627    -0.17200
C1513       C  0.34157914  0.46941544  0.50412903    -0.16300
C1514       C  0.34028168  0.48326173  0.49733327     0.07700
C1515       C  0.34026759  0.49971673  0.48965224     0.09600
C1516       C  0.34152843  0.51354113  0.48280759    -0.17200
C1517       C  0.37567602  0.45304105  0.57188106    -0.16300
C1518       C  0.38421372  0.45823151  0.58363616     0.07700
C1519       C  0.39560658  0.46167601  0.59723994     0.09600
C1520       C  0.40600777  0.46198997  0.60863305    -0.17200
C1521       C  0.42711269  0.36109693  0.53135762    -0.16300
C1522       C  0.41547954  0.36966177  0.52597152     0.07700
C1523       C  0.40201114  0.38110645  0.52227858     0.09600
C1524       C  0.39071871  0.39158978  0.52182435    -0.17200
C1525       C  0.33453930  0.27970383  0.61253874    -0.16300
C1526       C  0.34622618  0.27438429  0.62108561     0.07700
C1527       C  0.35976064  0.27077294  0.63250154     0.09600
C1528       C  0.37110452  0.27033767  0.64294670    -0.17200
C1529       C  0.30284797  0.34475956  0.55581714    -0.16300
C1530       C  0.30659155  0.35831162  0.54932151     0.07700
C1531       C  0.31250210  0.37453982  0.54366165     0.09600
C1532       C  0.31916471  0.38805579  0.54009294    -0.17200
C1533       C  0.28523938  0.34131778  0.62756857    -0.16300
C1534       C  0.28569516  0.35183651  0.63883612     0.07700
C1535       C  0.28921282  0.36336699  0.65229096     0.09600
C1536       C  0.29433823  0.37199699  0.66400025    -0.17200
C1537       C  0.52802485  0.48069623  0.32922479    -0.16300
C1538       C  0.51431580  0.48781760  0.32805201     0.07700
C1539       C  0.49803850  0.49591622  0.32807493     0.09600
C1540       C  0.48433682  0.50304814  0.32927356    -0.17200
C1541       C  0.65281567  0.42835296  0.29092446    -0.16300
C1542       C  0.63918372  0.43478303  0.29450544     0.07700
C1543       C  0.62282375  0.44040325  0.30010401     0.09600
C1544       C  0.60919453  0.44400836  0.30653222    -0.17200
C1545       C  0.71762495  0.37156192  0.32248195    -0.16300
C1546       C  0.72283180  0.36289803  0.33412204     0.07700
C1547       C  0.72636910  0.35138654  0.34757279     0.09600
C1548       C  0.72675970  0.34092887  0.35888867    -0.17200
C1549       C  0.67072982  0.46989176  0.48231081    -0.16300
C1550       C  0.67204791  0.48366243  0.48926622     0.07700
C1551       C  0.67206900  0.50000255  0.49721000     0.09600
C1552       C  0.67074837  0.51373621  0.50423756    -0.17200
C1553       C  0.60560245  0.46259145  0.37829093    -0.16300
C1554       C  0.61604592  0.46224600  0.38963576     0.07700
C1555       C  0.62752762  0.45871338  0.40313011     0.09600
C1556       C  0.63615110  0.45345359  0.41478604    -0.17200
C1557       C  0.70869013  0.34495960  0.43060306    -0.16300
C1558       C  0.70510351  0.35854200  0.43712134     0.07700
C1559       C  0.69941790  0.37482792  0.44284308     0.09600
C1560       C  0.69291369  0.38840793  0.44646818    -0.17200
C1561       C  0.51712136  0.32680073  0.47154512    -0.16300
C1562       C  0.51003765  0.32556820  0.48526249     0.07700
C1563       C  0.50198113  0.32561793  0.50154836     0.09600
C1564       C  0.49490040  0.32688909  0.51526438    -0.17200
C1565       C  0.62127391  0.39204649  0.46411945    -0.16300
C1566       C  0.61009660  0.38144267  0.46360117     0.07700
C1567       C  0.59678699  0.36979073  0.45996371     0.09600
C1568       C  0.58518191  0.36108836  0.45473784    -0.17200
C1569       C  0.53501909  0.37654814  0.39431520    -0.16300
C1570       C  0.53540949  0.38792572  0.38392393     0.07700
C1571       C  0.53899617  0.40140260  0.37245927     0.09600
C1572       C  0.54427627  0.41300981  0.36380075    -0.17200
C1573       C  0.62588632  0.32054788  0.28160075    -0.16300
C1574       C  0.63461206  0.33212902  0.27636961     0.07700
C1575       C  0.64622012  0.34550613  0.27286067     0.09600
C1576       C  0.65673536  0.35677013  0.27252294    -0.17200
C1577       C  0.56857876  0.28924978  0.34625660    -0.16300
C1578       C  0.56199306  0.29283934  0.35981554     0.07700
C1579       C  0.55627896  0.29843553  0.37614602     0.09600
C1580       C  0.55270165  0.30482216  0.38980216    -0.17200
C1581       C  0.64040209  0.27105276  0.34337689    -0.16300
C1582       C  0.65167599  0.27140149  0.35390611     0.07700
C1583       C  0.66515404  0.27485354  0.36544487     0.09600
C1584       C  0.67684701  0.28000283  0.37408982    -0.17200
C1585       C  0.51706079  0.82687961  0.97177326    -0.16300
C1586       C  0.50995925  0.82558812  0.98548345     0.07700
C1587       C  0.50184350  0.82555370  0.00175135     0.09600
C1588       C  0.49470199  0.82683806  0.01544183    -0.17200
C1589       C  0.59146847  0.75288616  0.76530229    -0.16300
C1590       C  0.59032158  0.74580938  0.75156879     0.07700
C1591       C  0.59042534  0.73772917  0.73528474     0.09600
C1592       C  0.59173250  0.73061680  0.72158409    -0.17200
C1593       C  0.56861493  0.78891356  0.84670998    -0.16300
C1594       C  0.56212196  0.79248411  0.86032724     0.07700
C1595       C  0.55646014  0.79808393  0.87668580     0.09600
C1596       C  0.55288614  0.80451605  0.89032767    -0.17200
C1597       C  0.62121888  0.89195027  0.96461762    -0.16300
C1598       C  0.60991336  0.88147993  0.96415898     0.07700
C1599       C  0.59642486  0.87004215  0.96049833     0.09600
C1600       C  0.58476201  0.86146467  0.95519332    -0.17200
C1601       C  0.67721104  0.77999218  0.87351869    -0.16300
C1602       C  0.66549684  0.77485335  0.86490668     0.07700
C1603       C  0.65192899  0.77140672  0.85348687     0.09600
C1604       C  0.64052918  0.77105003  0.84310371    -0.17200
C1605       C  0.70865670  0.84493516  0.93026036    -0.16300
C1606       C  0.70497151  0.85851659  0.93674929     0.07700
C1607       C  0.69924697  0.87480498  0.94247702     0.09600
C1608       C  0.69275008  0.88838739  0.94614739    -0.17200
C1609       C  0.53516944  0.87615795  0.89391236    -0.16300
C1610       C  0.53557912  0.88737617  0.88334311     0.07700
C1611       C  0.53916818  0.90072805  0.87172532     0.09600
C1612       C  0.54445554  0.91231103  0.86303359    -0.17200
C1613       C  0.60549363  0.96218639  0.87816627    -0.16300
C1614       C  0.61589344  0.96197830  0.88955650     0.07700
C1615       C  0.62736498  0.95864032  0.90311271     0.09600
C1616       C  0.63599979  0.95347832  0.91480610    -0.17200
C1617       C  0.73423189  0.90622415  0.75409117    -0.16300
C1618       C  0.74796140  0.90747827  0.74702076     0.07700
C1619       C  0.76429097  0.90747969  0.73902689     0.09600
C1620       C  0.77805307  0.90621371  0.73202128    -0.17200
C1621       C  0.71763554  0.87164819  0.82203854    -0.16300
C1622       C  0.72280094  0.86295020  0.83367534     0.07700
C1623       C  0.72634136  0.85144961  0.84713971     0.09600
C1624       C  0.72677822  0.84102436  0.85848679    -0.17200
C1625       C  0.65316097  0.92894835  0.79060081    -0.16300
C1626       C  0.63954036  0.93538861  0.79423044     0.07700
C1627       C  0.62316818  0.94094593  0.79988275     0.09600
C1628       C  0.60951103  0.94443646  0.80632768    -0.17200
C1629       C  0.65645336  0.85709135  0.77282891    -0.16300
C1630       C  0.64603846  0.84573700  0.77334225     0.07700
C1631       C  0.63457189  0.83225651  0.77694357     0.09600
C1632       C  0.62589166  0.82062463  0.78214448    -0.17200
C1633       C  0.76669914  0.21966243  0.40829047    -0.16300
C1634       C  0.75967757  0.23340155  0.40952642     0.07700
C1635       C  0.75173422  0.24973145  0.40951125     0.09600
C1636       C  0.74474887  0.26348623  0.40825501    -0.17200
C1637       C  0.84137828  0.01341204  0.48276210    -0.16300
C1638       C  0.84010759  0.99964223  0.48971776     0.07700
C1639       C  0.84005590  0.98329088  0.49762208     0.09600
C1640       C  0.84126269  0.96952087  0.50458972    -0.17200
C1641       C  0.80323441  0.13843801  0.43085760    -0.16300
C1642       C  0.80691969  0.12490875  0.43743498     0.07700
C1643       C  0.81262693  0.10864480  0.44320631     0.09600
C1644       C  0.81909124  0.09504941  0.44685143    -0.17200
C1645       C  0.87538318  0.02989044  0.41492113    -0.16300
C1646       C  0.88385152  0.02460586  0.40316574     0.07700
C1647       C  0.89516218  0.02101428  0.38954950     0.09600
C1648       C  0.90554167  0.02059455  0.37815306    -0.17200
C1649       C  0.79428815  0.11166298  0.32256716    -0.16300
C1650       C  0.78900545  0.12034913  0.33416387     0.07700
C1651       C  0.78533009  0.13185943  0.34758954     0.09600
C1652       C  0.78484402  0.14229275  0.35893058    -0.17200
C1653       C  0.85891355  0.05446987  0.29057977    -0.16300
C1654       C  0.87251290  0.04796699  0.29415880     0.07700
C1655       C  0.88881329  0.04224904  0.29983186     0.09600
C1656       C  0.90238359  0.03859283  0.30635265    -0.17200
C1657       C  0.89094536  0.09065952  0.46503500    -0.16300
C1658       C  0.90238637  0.10098822  0.46466434     0.07700
C1659       C  0.91589693  0.11243632  0.46109543     0.09600
C1660       C  0.92748753  0.12112643  0.45580399    -0.17200
C1661       C  0.97649214  0.10641547  0.39426941    -0.16300
C1662       C  0.97601349  0.09500812  0.38390515     0.07700
C1663       C  0.97237575  0.08147038  0.37251473     0.09600
C1664       C  0.96707555  0.06983719  0.36389520    -0.17200
C1665       C  0.85542605  0.12623155  0.27325178    -0.16300
C1666       C  0.86593243  0.13749714  0.27369870     0.07700
C1667       C  0.87746419  0.15092229  0.27725214     0.09600
C1668       C  0.88610965  0.16256829  0.28246074    -0.17200
C1669       C  0.94298400  0.19453577  0.34719397    -0.16300
C1670       C  0.94949461  0.19087340  0.36077878     0.07700
C1671       C  0.95518259  0.18507688  0.37706177     0.09600
C1672       C  0.95877440  0.17847530  0.39061979    -0.17200
C1673       C  0.87109672  0.21220018  0.34352223    -0.16300
C1674       C  0.85983216  0.21185166  0.35404768     0.07700
C1675       C  0.84640500  0.20838575  0.36561539     0.09600
C1676       C  0.83473960  0.20320266  0.37425903    -0.17200
C1677       C  0.98374063  0.48125731  0.15774465    -0.16300
C1678       C  0.99750194  0.48823623  0.15904300     0.07700
C1679       C  0.01387501  0.49611154  0.15910286     0.09600
C1680       C  0.02765819  0.50306343  0.15789491    -0.17200
C1681       C  0.77809709  0.40610752  0.23278620    -0.16300
C1682       C  0.76436574  0.40740706  0.23982827     0.07700
C1683       C  0.74805259  0.40748576  0.24782355     0.09600
C1684       C  0.73430728  0.40625972  0.25484777    -0.17200
C1685       C  0.85939649  0.42878567  0.19645594    -0.16300
C1686       C  0.87293167  0.43536190  0.19277993     0.07700
C1687       C  0.88915534  0.44116079  0.18697268     0.09600
C1688       C  0.90267180  0.44486032  0.18036386    -0.17200
C1689       C  0.78524222  0.34102770  0.12874531    -0.16300
C1690       C  0.78569011  0.35157014  0.13999476     0.07700
C1691       C  0.78925736  0.36320461  0.15335123     0.09600
C1692       C  0.79451077  0.37192680  0.16493701    -0.17200
C1693       C  0.87543071  0.45294991  0.07222116    -0.16300
C1694       C  0.88408432  0.45829709  0.08380895     0.07700
C1695       C  0.89558107  0.46208673  0.09721314     0.09600
C1696       C  0.90606336  0.46269443  0.10850557    -0.17200
C1697       C  0.80259896  0.34484200  0.05679282    -0.16300
C1698       C  0.80613154  0.35843300  0.05025665     0.07700
C1699       C  0.81176244  0.37472458  0.04448809     0.09600
C1700       C  0.81824548  0.38829610  0.04079823    -0.17200
C1701       C  0.01647761  0.32756503  0.97148012    -0.16300
C1702       C  0.00942964  0.32631073  0.98521911     0.07700
C1703       C  0.00144589  0.32621422  0.00154830     0.09600
C1704       C  0.99443027  0.32737180  0.01531213    -0.17200
C1705       C  0.89000324  0.39184522  0.02270855    -0.16300
C1706       C  0.90134991  0.38142483  0.02313938     0.07700
C1707       C  0.91486216  0.37000192  0.02671467     0.09600
C1708       C  0.92655780  0.36143069  0.03194572    -0.17200
C1709       C  0.97623443  0.37649150  0.09305435    -0.16300
C1710       C  0.97583893  0.38785768  0.10346476     0.07700
C1711       C  0.97235639  0.40142828  0.11486456     0.09600
C1712       C  0.96723368  0.41317636  0.12343846    -0.17200
C1713       C  0.92012742  0.23038809  0.26566744    -0.16300
C1714       C  0.92130267  0.23740264  0.25189925     0.07700
C1715       C  0.92126707  0.24539631  0.23556466     0.09600
C1716       C  0.92002341  0.25245768  0.22182665    -0.17200
C1717       C  0.88630166  0.32060831  0.20567635    -0.16300
C1718       C  0.87775172  0.33230598  0.21095737     0.07700
C1719       C  0.86629981  0.34581517  0.21452351     0.09600
C1720       C  0.85583329  0.35713445  0.21489372    -0.17200
C1721       C  0.95825091  0.30482852  0.09679188    -0.16300
C1722       C  0.95459787  0.29838959  0.11040760     0.07700
C1723       C  0.94890720  0.29275030  0.12674024     0.09600
C1724       C  0.94244938  0.28914057  0.14036174    -0.17200
C1725       C  0.83437924  0.27962811  0.11372414    -0.16300
C1726       C  0.84606436  0.27440480  0.12234219     0.07700
C1727       C  0.85961133  0.27089115  0.13378511     0.09600
C1728       C  0.87097598  0.27053398  0.14421526    -0.17200
C1729       C  0.52794744  0.00247419  0.15794670    -0.16300
C1730       C  0.51421416  0.99540894  0.15909550     0.07700
C1731       C  0.49786128  0.98748092  0.15895770     0.09600
C1732       C  0.48406958  0.98056301  0.15761186    -0.17200
C1733       C  0.73385307  0.07724645  0.23247045    -0.16300
C1734       C  0.74755477  0.07597342  0.23959407     0.07700
C1735       C  0.76381841  0.07590388  0.24772559     0.09600
C1736       C  0.77752920  0.07708896  0.25484488    -0.17200
C1737       C  0.60899986  0.03905607  0.18047566    -0.16300
C1738       C  0.62260670  0.04262559  0.18696028     0.07700
C1739       C  0.63896444  0.04815228  0.19263668     0.09600
C1740       C  0.65260774  0.05451639  0.19626762    -0.17200
C1741       C  0.76650846  0.26368222  0.07899360    -0.16300
C1742       C  0.75945155  0.24997016  0.07766096     0.07700
C1743       C  0.75150969  0.23363578  0.07756846     0.09600
C1744       C  0.74455381  0.21985975  0.07877164    -0.17200
C1745       C  0.72623577  0.14230929  0.12826977    -0.16300
C1746       C  0.72575664  0.13184028  0.13957416     0.07700
C1747       C  0.72216864  0.12030872  0.15299624     0.09600
C1748       C  0.71696851  0.11162399  0.16462411    -0.17200
C1749       C  0.67033765  0.96984460  0.98235897    -0.16300
C1750       C  0.67154801  0.98365464  0.98925881     0.07700
C1751       C  0.67148069  0.00003874  0.99711832     0.09600
C1752       C  0.67019017  0.01379870  0.00410532    -0.17200
C1753       C  0.60543947  0.02091761  0.10864590    -0.16300
C1754       C  0.61587695  0.02123090  0.09729176     0.07700
C1755       C  0.62736264  0.02469583  0.08378109     0.09600
C1756       C  0.63598778  0.02992373  0.07211143    -0.17200
C1757       C  0.69286086  0.09483911  0.04062469    -0.16300
C1758       C  0.69926964  0.10844872  0.04431729     0.07700
C1759       C  0.70484749  0.12477283  0.05006469     0.09600
C1760       C  0.70842498  0.13837480  0.05656077    -0.17200
C1761       C  0.62131468  0.09181205  0.02308043    -0.16300
C1762       C  0.61004347  0.10232469  0.02358598     0.07700
C1763       C  0.59651423  0.11374734  0.02716955     0.09600
C1764       C  0.58473263  0.12225043  0.03234353    -0.17200
C1765       C  0.53436496  0.10690525  0.09297441    -0.16300
C1766       C  0.53493349  0.09554861  0.10338356     0.07700
C1767       C  0.53877158  0.08208884  0.11479592     0.09600
C1768       C  0.54419521  0.07048742  0.12338278    -0.17200
C1769       C  0.59115276  0.23033690  0.22178562    -0.16300
C1770       C  0.58998276  0.23735959  0.23554685     0.07700
C1771       C  0.59006709  0.24541043  0.25184701     0.09600
C1772       C  0.59138161  0.25255081  0.26553248    -0.17200
C1773       C  0.65572600  0.12606817  0.21440069    -0.16300
C1774       C  0.64525343  0.13738501  0.21398274     0.07700
C1775       C  0.63377800  0.15088008  0.21041512     0.09600
C1776       C  0.62517029  0.16255563  0.20517198    -0.17200
C1777       C  0.55220303  0.17869946  0.09687659    -0.16300
C1778       C  0.55587788  0.18517918  0.11046671     0.07700
C1779       C  0.56170164  0.19083462  0.12674650     0.09600
C1780       C  0.56830665  0.19440806  0.14030670    -0.17200
C1781       C  0.67677132  0.20337007  0.11332347    -0.16300
C1782       C  0.66509455  0.20853318  0.12199006     0.07700
C1783       C  0.65158527  0.21200557  0.13349155     0.09600
C1784       C  0.64023589  0.21236661  0.14394111    -0.17200
C1785       C  0.99506000  0.15627355  0.47162428    -0.16300
C1786       C  0.00209606  0.15756525  0.48536433     0.07700
C1787       C  0.01002354  0.15751185  0.50172099     0.09600
C1788       C  0.01699541  0.15617974  0.51549145    -0.17200
C1789       C  0.09186319  0.23020238  0.72154380    -0.16300
C1790       C  0.09063144  0.23715057  0.73533752     0.07700
C1791       C  0.09059806  0.24505372  0.75171143     0.09600
C1792       C  0.09175763  0.25205509  0.76548384    -0.17200
C1793       C  0.06919337  0.19447521  0.64001670    -0.16300
C1794       C  0.06261861  0.19090508  0.62644554     0.07700
C1795       C  0.05680711  0.18523403  0.61017314     0.09600
C1796       C  0.05311356  0.17871774  0.59660944    -0.17200
C1797       C  0.02805371  0.00239887  0.65740399    -0.16300
C1798       C  0.01424078  0.99551515  0.65859966     0.07700
C1799       C  0.99786883  0.98765677  0.65853942     0.09600
C1800       C  0.98410446  0.98068099  0.65731998    -0.17200
C1801       C  0.03586872  0.10690744  0.59336507    -0.16300
C1802       C  0.03630752  0.09563301  0.60387754     0.07700
C1803       C  0.03978046  0.08212955  0.61536197     0.09600
C1804       C  0.04492265  0.07036433  0.62389859    -0.17200
C1805       C  0.10976555  0.03845969  0.67974965    -0.16300
C1806       C  0.12336141  0.04207235  0.68622446     0.07700
C1807       C  0.13968650  0.04771261  0.69186346     0.09600
C1808       C  0.15328763  0.05418183  0.69545111    -0.17200
C1809       C  0.12601013  0.16233574  0.70465286    -0.16300
C1810       C  0.13462767  0.15063449  0.70980839     0.07700
C1811       C  0.14609853  0.13712679  0.71330040     0.09600
C1812       C  0.15656396  0.12580938  0.71367371    -0.17200
C1813       C  0.10570844  0.01966866  0.60814176    -0.16300
C1814       C  0.11616834  0.02015213  0.59681189     0.07700
C1815       C  0.12765752  0.02394104  0.58338734     0.09600
C1816       C  0.13625440  0.02940966  0.57180603    -0.17200
C1817       C  0.08477777  0.12195859  0.53148714    -0.16300
C1818       C  0.09639243  0.11329090  0.52621947     0.07700
C1819       C  0.10979518  0.10169450  0.52274508     0.09600
C1820       C  0.12104861  0.09115933  0.52242829    -0.17200
C1821       C  0.24506981  0.21951691  0.57856799    -0.16300
C1822       C  0.25203529  0.23328363  0.57739856     0.07700
C1823       C  0.25990804  0.24964048  0.57748442     0.09600
C1824       C  0.26683414  0.26342150  0.57872694    -0.17200
C1825       C  0.14080628  0.21202760  0.64348407    -0.16300
C1826       C  0.15204664  0.21159597  0.63293211     0.07700
C1827       C  0.16547694  0.20807129  0.62137499     0.09600
C1828       C  0.17716823  0.20290412  0.61274562    -0.17200
C1829       C  0.20865631  0.13824022  0.55626696    -0.16300
C1830       C  0.20496988  0.12463563  0.54988247     0.07700
C1831       C  0.19922952  0.10832570  0.54434676     0.09600
C1832       C  0.19271352  0.09475317  0.54077178    -0.17200
C1833       C  0.22760562  0.14194191  0.62784629    -0.16300
C1834       C  0.22720498  0.13142869  0.63912507     0.07700
C1835       C  0.22353361  0.11986104  0.65251404     0.09600
C1836       C  0.21818243  0.11117743  0.66408785    -0.17200
C1837       C  0.49442762  0.15574315  0.97151144    -0.16300
C1838       C  0.50142539  0.15706540  0.98526729     0.07700
C1839       C  0.50941456  0.15718155  0.00159053     0.09600
C1840       C  0.51646523  0.15599852  0.01533179    -0.17200
C1841       C  0.41981290  0.23003292  0.76496543    -0.16300
C1842       C  0.42104246  0.23710230  0.75122707     0.07700
C1843       C  0.42107286  0.24514897  0.73491262     0.09600
C1844       C  0.41989913  0.25221157  0.72116467    -0.17200
C1845       C  0.45842651  0.17798199  0.88983448    -0.16300
C1846       C  0.45483839  0.18453236  0.87625665     0.07700
C1847       C  0.44917597  0.19030871  0.85996758     0.09600
C1848       C  0.44267506  0.19396072  0.84638220    -0.17200
C1849       C  0.23418338  0.07670841  0.73213452    -0.16300
C1850       C  0.24783803  0.07544854  0.73933313     0.07700
C1851       C  0.26406944  0.07540624  0.74750271     0.09600
C1852       C  0.27775869  0.07661390  0.75464504    -0.17200
C1853       C  0.35560040  0.12543898  0.77282103    -0.16300
C1854       C  0.36608138  0.13673382  0.77310027     0.07700
C1855       C  0.37756430  0.15024276  0.77648790     0.09600
C1856       C  0.38614418  0.16197089  0.78161775    -0.17200
C1857       C  0.48393444  0.00178569  0.82911945    -0.16300
C1858       C  0.49768978  0.99478643  0.82783521     0.07700
C1859       C  0.51406244  0.98690634  0.82776047     0.09600
C1860       C  0.52786719  0.97998729  0.82894394    -0.17200
C1861       C  0.47671252  0.10627212  0.89400052    -0.16300
C1862       C  0.47630488  0.09492709  0.88356695     0.07700
C1863       C  0.47273859  0.08144078  0.87209472     0.09600
C1864       C  0.46752337  0.06977128  0.86347410    -0.17200
C1865       C  0.40251298  0.03819781  0.80689394    -0.16300
C1866       C  0.38891113  0.04177694  0.80037775     0.07700
C1867       C  0.37258502  0.04737182  0.79461995     0.09600
C1868       C  0.35897675  0.05381717  0.79094390    -0.17200
C1869       C  0.26690809  0.21959460  0.90771619    -0.16300
C1870       C  0.26009808  0.23344205  0.90889598     0.07700
C1871       C  0.25234973  0.24986211  0.90887427     0.09600
C1872       C  0.24541256  0.26364038  0.90762787    -0.17200
C1873       C  0.33457485  0.20294050  0.87369624    -0.16300
C1874       C  0.34624906  0.20807054  0.86502899     0.07700
C1875       C  0.35969052  0.21144265  0.85344311     0.09600
C1876       C  0.37094182  0.21174781  0.84289730    -0.17200
C1877       C  0.28473693  0.14183378  0.85857073    -0.16300
C1878       C  0.28516131  0.13128724  0.84733394     0.07700
C1879       C  0.28880101  0.11967447  0.83398991     0.09600
C1880       C  0.29413277  0.11096713  0.82243304    -0.17200
C1881       C  0.34079161  0.01348872  0.98223352    -0.16300
C1882       C  0.33956566  0.99976900  0.98919472     0.07700
C1883       C  0.33956081  0.98337184  0.99711790     0.09600
C1884       C  0.34087288  0.96965396  0.00407361    -0.17200
C1885       C  0.37574481  0.02925459  0.91487898    -0.16300
C1886       C  0.38455012  0.02385430  0.90342200     0.07700
C1887       C  0.39619085  0.02020459  0.89009090     0.09600
C1888       C  0.40667590  0.01980899  0.87878368    -0.17200
C1889       C  0.30234806  0.13786376  0.93006547    -0.16300
C1890       C  0.30584455  0.12421038  0.93648859     0.07700
C1891       C  0.31146289  0.10786648  0.94211767     0.09600
C1892       C  0.31800406  0.09429936  0.94572878    -0.17200
C1893       C  0.42641456  0.12181918  0.95473703    -0.16300
C1894       C  0.41470366  0.11320253  0.95986817     0.07700
C1895       C  0.40123018  0.10169051  0.96334638     0.09600
C1896       C  0.38993409  0.09120717  0.96374678    -0.17200
C1897       C  0.17040803  0.97001683  0.48159837    -0.16300
C1898       C  0.17156092  0.98378588  0.48858588     0.07700
C1899       C  0.17152262  0.00010303  0.49657671     0.09600
C1900       C  0.17028523  0.01380931  0.50367302    -0.17200
C1901       C  0.26725415  0.71978033  0.40827944    -0.16300
C1902       C  0.26035840  0.73358159  0.40950056     0.07700
C1903       C  0.25247737  0.74993721  0.40945895     0.09600
C1904       C  0.24547834  0.76367577  0.40813559    -0.17200
C1905       C  0.19313853  0.88842786  0.44565532    -0.16300
C1906       C  0.19956972  0.87480565  0.44204315     0.07700
C1907       C  0.20522886  0.85847073  0.43641884     0.09600
C1908       C  0.20889763  0.84485753  0.43000545    -0.17200
C1909       C  0.09187279  0.75252239  0.26524803    -0.16300
C1910       C  0.09066506  0.74558756  0.25144979     0.07700
C1911       C  0.09070797  0.73772646  0.23506140     0.09600
C1912       C  0.09193591  0.73079529  0.22126198    -0.17200
C1913       C  0.17778727  0.77984697  0.37326065    -0.16300
C1914       C  0.16612284  0.77459904  0.36465916     0.07700
C1915       C  0.15261119  0.77102068  0.35323154     0.09600
C1916       C  0.14124357  0.77059105  0.34282705    -0.17200
C1917       C  0.99496991  0.82703627  0.51512962    -0.16300
C1918       C  0.00212827  0.82579093  0.50143449     0.07700
C1919       C  0.01028521  0.82580151  0.48517064     0.09600
C1920       C  0.01740945  0.82704682  0.47145803    -0.17200
C1921       C  0.08498900  0.86161986  0.45493645    -0.16300
C1922       C  0.09659240  0.87032962  0.46013695     0.07700
C1923       C  0.11004028  0.88187863  0.46354034     0.09600
C1924       C  0.12137017  0.89232144  0.46379258    -0.17200
C1925       C  0.05315681  0.80439119  0.39009933    -0.16300
C1926       C  0.05685804  0.79787343  0.37653070     0.07700
C1927       C  0.06275057  0.79215091  0.36029457     0.09600
C1928       C  0.06939772  0.78850523  0.34677104    -0.17200
C1929       C  0.27715285  0.90667711  0.23166428    -0.16300
C1930       C  0.26347686  0.90797068  0.23882857     0.07700
C1931       C  0.24725740  0.90802932  0.24703602     0.09600
C1932       C  0.23360450  0.90674612  0.25424236    -0.17200
C1933       C  0.22737679  0.84106390  0.35836130    -0.16300
C1934       C  0.22688817  0.85153745  0.34704640     0.07700
C1935       C  0.22319198  0.86309104  0.33364569     0.09600
C1936       C  0.21783820  0.87180202  0.32208890    -0.17200
C1937       C  0.15652513  0.85682787  0.27259372    -0.16300
C1938       C  0.14616428  0.84542517  0.27299134     0.07700
C1939       C  0.13475686  0.83189390  0.27655798     0.09600
C1940       C  0.12615997  0.82022300  0.28180015    -0.17200
C1941       C  0.98336733  0.00234740  0.32905424    -0.16300
C1942       C  0.99709596  0.99530655  0.32777039     0.07700
C1943       C  0.01341877  0.98733948  0.32768745     0.09600
C1944       C  0.02719875  0.98037680  0.32884834    -0.17200
C1945       C  0.03567657  0.87612657  0.39344855    -0.16300
C1946       C  0.03598583  0.88741160  0.38294602     0.07700
C1947       C  0.03932374  0.90090088  0.37141196     0.09600
C1948       C  0.04436345  0.91262641  0.36276752    -0.17200
C1949       C  0.15248437  0.92865465  0.29074486    -0.16300
C1950       C  0.13888325  0.93518836  0.29426648     0.07700
C1951       C  0.12254605  0.94094712  0.29979791     0.09600
C1952       C  0.10890886  0.94461080  0.30617721    -0.17200
C1953       C  0.10515865  0.96264161  0.37782212    -0.16300
C1954       C  0.11570266  0.96215561  0.38907220     0.07700
C1955       C  0.12733117  0.95847875  0.40240815     0.09600
C1956       C  0.13608095  0.95317469  0.41395300    -0.17200
C1957       C  0.84108546  0.51312545  0.98218241    -0.16300
C1958       C  0.83985665  0.49938751  0.98919689     0.07700
C1959       C  0.83984776  0.48309852  0.99720970     0.09600
C1960       C  0.84106284  0.46940130  0.00430683    -0.17200
C1961       C  0.76697344  0.71976491  0.90792047    -0.16300
C1962       C  0.76005987  0.73355632  0.90921206     0.07700
C1963       C  0.75217895  0.74992116  0.90923826     0.09600
C1964       C  0.74518083  0.76367319  0.90798431    -0.17200
C1965       C  0.80282629  0.63799207  0.92982460    -0.16300
C1966       C  0.80643123  0.62437156  0.93625749     0.07700
C1967       C  0.81209304  0.60806451  0.94195071     0.09600
C1968       C  0.81856222  0.59448618  0.94564736    -0.17200
C1969       C  0.77764741  0.57695233  0.75400546    -0.16300
C1970       C  0.76394362  0.57564270  0.74690302     0.07700
C1971       C  0.74763673  0.57553950  0.73887386     0.09600
C1972       C  0.73387664  0.57671535  0.73185609    -0.17200
C1973       C  0.79369303  0.61128216  0.82200843    -0.16300
C1974       C  0.78846659  0.62008290  0.83355436     0.07700
C1975       C  0.78494995  0.63179069  0.84686938     0.09600
C1976       C  0.78458368  0.64234263  0.85811664    -0.17200
C1977       C  0.98360090  0.50221703  0.82884122    -0.16300
C1978       C  0.99733645  0.49517818  0.82764099     0.07700
C1979       C  0.01365152  0.48720251  0.82772336     0.09600
C1980       C  0.02738873  0.48018399  0.82902201    -0.17200
C1981       C  0.90236189  0.53846909  0.80624722    -0.16300
C1982       C  0.88880334  0.54221269  0.79974587    -0.01900
C1983       C  0.87253036  0.54804644  0.79409743     0.09600
C1984       C  0.85894728  0.55459765  0.79053142    -0.17200
C1985       C  0.90611759  0.52051468  0.87818094    -0.16300
C1986       C  0.89564071  0.52095761  0.88948388     0.07700
C1987       C  0.88408873  0.52453558  0.90289352     0.09600
C1988       C  0.87539510  0.52975911  0.91450604    -0.17200
C1989       C  0.99421574  0.65612478  0.97158072    -0.16300
C1990       C  0.00131050  0.65743473  0.98529324     0.07700
C1991       C  0.00945642  0.65747705  0.00154855     0.09600
C1992       C  0.01666552  0.65623856  0.01520867    -0.17200
C1993       C  0.92662173  0.62125561  0.95540820    -0.16300
C1994       C  0.91501494  0.61259253  0.96068501     0.07700
C1995       C  0.90156481  0.60108880  0.96423943     0.09600
C1996       C  0.89023419  0.59064977  0.96458964    -0.17200
C1997       C  0.97579758  0.60667929  0.89381796    -0.16300
C1998       C  0.97542011  0.59540469  0.88330592     0.07700
C1999       C  0.97198398  0.58193717  0.87177322     0.09600
C2000       C  0.96689302  0.57023783  0.86312095    -0.17200
C2001       C  0.92001074  0.73045268  0.76528171    -0.16300
C2002       C  0.92131887  0.73746753  0.75153120     0.07700
C2003       C  0.92144487  0.74537207  0.73516136     0.09600
C2004       C  0.92031204  0.75232520  0.72136345    -0.17200
C2005       C  0.85521939  0.62606969  0.77248086    -0.16300
C2006       C  0.86575255  0.63731344  0.77282358     0.07700
C2007       C  0.87730265  0.65074265  0.77629585     0.09600
C2008       C  0.88594638  0.66239143  0.78149941    -0.17200
C2009       C  0.94235154  0.69381422  0.84665382    -0.16300
C2010       C  0.94874144  0.69024159  0.86031466     0.07700
C2011       C  0.95433747  0.68466382  0.87669736     0.09600
C2012       C  0.95793386  0.67825388  0.89034003    -0.17200
C2013       C  0.83464098  0.70311767  0.87362445    -0.16300
C2014       C  0.84631953  0.70831214  0.86500664     0.07700
C2015       C  0.85975518  0.71180043  0.85345865     0.09600
C2016       C  0.87100869  0.71215094  0.84292406    -0.17200
loop_ 
_geom_bond_atom_site_label_1 
_geom_bond_atom_site_label_2 
_geom_bond_distance 
_geom_bond_site_symmetry_2 
_ccdc_geom_bond_type 
In1           O3   2.235       .  S
In1           O4   2.256       .  S
In1          O12   2.264       .  S
In1           O6   2.255       .  S
In1           O8   2.266       .  S
In1           O9   2.251       .  S
In1          O10   2.226       .  S
In1          O13   2.267       .  S
C2            O8   1.263       .  A
C2           O10   1.257       .  A
C2         C2016   1.435       .  S
O3           C11   1.259       .  A
O4           C11   1.262       .  A
C5           O12   1.260       .  A
C5            O6   1.259       .  A
C5         C2001   1.444       .  S
C7            O9   1.259       .  A
C7           O13   1.261       .  A
C7         C2009   1.445       .  S
C11        C2008   1.435       .  S
In14         O16   2.237       .  S
In14         O17   2.255       .  S
In14         O25   2.264       .  S
In14         O19   2.256       .  S
In14         O21   2.267       .  S
In14         O22   2.251       .  S
In14         O23   2.227       .  S
In14         O26   2.267       .  S
C15          O21   1.263       .  A
C15          O23   1.257       .  A
C15        C1997   1.436       .  S
O16          C24   1.259       .  A
O17          C24   1.262       .  A
C18          O25   1.260       .  A
C18          O19   1.259       .  A
C18        C1989   1.445       .  S
C20          O22   1.259       .  A
C20          O26   1.261       .  A
C20        C2012   1.444       .  S
C24        C1993   1.435       .  S
In27         O29   2.236       .  S
In27         O30   2.255       .  S
In27         O38   2.263       .  S
In27         O32   2.254       .  S
In27         O34   2.266       .  S
In27         O35   2.250       .  S
In27         O36   2.226       .  S
In27         O39   2.269       .  S
C28          O34   1.263       .  A
C28          O36   1.257       .  A
C28        C1985   1.434       .  S
O29          C37   1.259       .  A
O30          C37   1.262       .  A
C31          O38   1.260       .  A
C31          O32   1.259       .  A
C31        C1977   1.443       .  S
C33          O35   1.258       .  A
C33          O39   1.261       .  A
C33        C1981   1.445       .  S
C37        C2000   1.436       .  S
In40         O42   2.235       .  S
In40         O43   2.258       .  S
In40         O51   2.263       .  S
In40         O45   2.255       .  S
In40         O47   2.266       .  S
In40         O48   2.252       .  S
In40         O49   2.227       .  S
In40         O52   2.268       .  S
C41          O47   1.263       .  A
C41          O49   1.257       .  A
C41        C2005   1.435       .  S
O42          C50   1.259       .  A
O43          C50   1.263       .  A
C44          O51   1.260       .  A
C44          O45   1.259       .  A
C44        C1969   1.445       .  S
C46          O48   1.259       .  A
C46          O52   1.261       .  A
C46        C1984   1.445       .  S
C50        C1973   1.437       .  S
In53         O55   2.235       .  S
In53         O56   2.255       .  S
In53         O64   2.263       .  S
In53         O58   2.256       .  S
In53         O60   2.269       .  S
In53         O61   2.251       .  S
In53         O62   2.227       .  S
In53         O65   2.270       .  S
C54          O60   1.263       .  A
C54          O62   1.257       .  A
C54        C1976   1.437       .  S
O55          C63   1.259       .  A
O56          C63   1.262       .  A
C57          O64   1.260       .  A
C57          O58   1.259       .  A
C57        C1961   1.444       .  S
C59          O61   1.258       .  A
C59          O65   1.261       .  A
C59        C1965   1.445       .  S
C63        C2013   1.435       .  S
In66         O68   2.234       .  S
In66         O69   2.255       .  S
In66         O77   2.263       .  S
In66         O71   2.254       .  S
In66         O73   2.267       .  S
In66         O74   2.250       .  S
In66         O75   2.226       .  S
In66         O78   2.269       .  S
C67          O73   1.263       .  A
C67          O75   1.257       .  A
C67        C1996   1.435       .  S
O68          C76   1.259       .  A
O69          C76   1.262       .  A
C70          O77   1.260       .  A
C70          O71   1.259       .  A
C70        C1957   1.443       .  S
C72          O74   1.258       .  A
C72          O78   1.261       .  A
C72        C1968   1.445       .  S
C76        C1988   1.435       .  S
In79         O81   2.235       .  S
In79         O82   2.255       .  S
In79         O90   2.263       .  S
In79         O84   2.254       .  S
In79         O86   2.269       .  S
In79         O87   2.249       .  S
In79         O88   2.226       .  S
In79         O91   2.268       .  S
C80          O86   1.263       .  A
C80          O88   1.257       .  A
C80        C1953   1.436       .  S
O81          C89   1.259       .  A
O82          C89   1.262       .  A
C83          O90   1.260       .  A
C83          O84   1.259       .  A
C83        C1944   1.444       .  S
C85          O87   1.258       .  A
C85          O91   1.261       .  A
C85        C1952   1.444       .  S
C89        C1948   1.435       .  S
In92         O94   2.238       .  S
In92         O95   2.258       .  S
In92        O103   2.265       .  S
In92         O97   2.253       .  S
In92         O99   2.267       .  S
In92        O100   2.252       .  S
In92        O101   2.227       .  S
In92        O104   2.267       .  S
C93          O99   1.263       .  A
C93         O101   1.257       .  A
C93        C1937   1.435       .  S
O94         C102   1.259       .  A
O95         C102   1.262       .  A
C96         O103   1.261       .  A
C96          O97   1.259       .  A
C96        C1932   1.444       .  S
C98         O100   1.259       .  A
C98         O104   1.261       .  A
C98        C1949   1.445       .  S
C102       C1936   1.437       .  S
In105       O107   2.236       .  S
In105       O108   2.256       .  S
In105       O116   2.265       .  S
In105       O110   2.256       .  S
In105       O112   2.267       .  S
In105       O113   2.249       .  S
In105       O114   2.228       .  S
In105       O117   2.269       .  S
C106        O112   1.263       .  A
C106        O114   1.257       .  A
C106       C1945   1.436       .  S
O107        C115   1.258       .  A
O108        C115   1.262       .  A
C109        O116   1.261       .  A
C109        O110   1.260       .  A
C109       C1920   1.446       .  S
C111        O113   1.259       .  A
C111        O117   1.261       .  A
C111       C1925   1.445       .  S
C115       C1921   1.435       .  S
In118       O120   2.236       .  S
In118       O121   2.256       .  S
In118       O129   2.264       .  S
In118       O123   2.255       .  S
In118       O125   2.266       .  S
In118       O126   2.251       .  S
In118       O127   2.225       .  S
In118       O130   2.268       .  S
C119        O125   1.263       .  A
C119        O127   1.257       .  A
C119       C1916   1.435       .  S
O120        C128   1.258       .  A
O121        C128   1.262       .  A
C122        O129   1.260       .  A
C122        O123   1.259       .  A
C122       C1909   1.444       .  S
C124        O126   1.259       .  A
C124        O130   1.261       .  A
C124       C1928   1.445       .  S
C128       C1940   1.436       .  S
In131       O133   2.237       .  S
In131       O134   2.255       .  S
In131       O142   2.263       .  S
In131       O136   2.254       .  S
In131       O138   2.269       .  S
In131       O139   2.250       .  S
In131       O140   2.226       .  S
In131       O143   2.267       .  S
C132        O138   1.263       .  A
C132        O140   1.257       .  A
C132       C1933   1.436       .  S
O133        C141   1.258       .  A
O134        C141   1.262       .  A
C135        O142   1.260       .  A
C135        O136   1.259       .  A
C135       C1904   1.443       .  S
C137        O139   1.259       .  A
C137        O143   1.261       .  A
C137       C1908   1.445       .  S
C141       C1913   1.435       .  S
In144       O146   2.236       .  S
In144       O147   2.257       .  S
In144       O155   2.265       .  S
In144       O149   2.256       .  S
In144       O151   2.266       .  S
In144       O152   2.253       .  S
In144       O153   2.227       .  S
In144       O156   2.269       .  S
C145        O151   1.263       .  A
C145        O153   1.257       .  A
C145       C1924   1.435       .  S
O146        C154   1.258       .  A
O147        C154   1.262       .  A
C148        O155   1.260       .  A
C148        O149   1.259       .  A
C148       C1897   1.445       .  S
C150        O152   1.259       .  A
C150        O156   1.261       .  A
C150       C1905   1.445       .  S
C154       C1956   1.436       .  S
In157       O159   2.236       .  S
In157       O160   2.257       .  S
In157       O168   2.262       .  S
In157       O162   2.255       .  S
In157       O164   2.267       .  S
In157       O165   2.251       .  S
In157       O166   2.227       .  S
In157       O169   2.268       .  S
C158        O164   1.263       .  A
C158        O166   1.257       .  A
C158       C1896   1.436       .  S
O159        C167   1.258       .  A
O160        C167   1.262       .  A
C161        O168   1.259       .  A
C161        O162   1.259       .  A
C161       C1881   1.447       .  S
C163        O165   1.259       .  A
C163        O169   1.261       .  A
C163       C1892   1.445       .  S
C167       C1885   1.436       .  S
In170       O172   2.235       .  S
In170       O173   2.256       .  S
In170       O181   2.262       .  S
In170       O175   2.254       .  S
In170       O177   2.266       .  S
In170       O178   2.251       .  S
In170       O179   2.226       .  S
In170       O182   2.267       .  S
C171        O177   1.263       .  A
C171        O179   1.257       .  A
C171       C1877   1.435       .  S
O172        C180   1.258       .  A
O173        C180   1.262       .  A
C174        O181   1.260       .  A
C174        O175   1.259       .  A
C174       C1869   1.444       .  S
C176        O178   1.259       .  A
C176        O182   1.261       .  A
C176       C1889   1.445       .  S
C180       C1873   1.435       .  S
In183       O185   2.237       .  S
In183       O186   2.257       .  S
In183       O194   2.265       .  S
In183       O188   2.255       .  S
In183       O190   2.267       .  S
In183       O191   2.254       .  S
In183       O192   2.227       .  S
In183       O195   2.269       .  S
C184        O190   1.263       .  A
C184        O192   1.257       .  A
C184       C1888   1.436       .  S
O185        C193   1.259       .  A
O186        C193   1.262       .  A
C187        O194   1.260       .  A
C187        O188   1.259       .  A
C187       C1857   1.444       .  S
C189        O191   1.259       .  A
C189        O195   1.261       .  A
C189       C1865   1.445       .  S
C193       C1864   1.436       .  S
In196       O198   2.237       .  S
In196       O199   2.256       .  S
In196       O207   2.264       .  S
In196       O201   2.255       .  S
In196       O203   2.266       .  S
In196       O204   2.251       .  S
In196       O205   2.227       .  S
In196       O208   2.268       .  S
C197        O203   1.263       .  A
C197        O205   1.257       .  A
C197       C1853   1.435       .  S
O198        C206   1.259       .  A
O199        C206   1.262       .  A
C200        O207   1.260       .  A
C200        O201   1.259       .  A
C200       C1852   1.444       .  S
C202        O204   1.259       .  A
C202        O208   1.261       .  A
C202       C1868   1.445       .  S
C206       C1880   1.436       .  S
In209       O211   2.235       .  S
In209       O212   2.255       .  S
In209       O220   2.265       .  S
In209       O214   2.256       .  S
In209       O216   2.267       .  S
In209       O217   2.250       .  S
In209       O218   2.228       .  S
In209       O221   2.269       .  S
C210        O216   1.263       .  A
C210        O218   1.257       .  A
C210       C1876   1.435       .  S
O211        C219   1.259       .  A
O212        C219   1.262       .  A
C213        O220   1.261       .  A
C213        O214   1.259       .  A
C213       C1841   1.445       .  S
C215        O217   1.258       .  A
C215        O221   1.261       .  A
C215       C1848   1.445       .  S
C219       C1856   1.435       .  S
In222       O224   2.235       .  S
In222       O225   2.256       .  S
In222       O233   2.264       .  S
In222       O227   2.256       .  S
In222       O229   2.268       .  S
In222       O230   2.251       .  S
In222       O231   2.226       .  S
In222       O234   2.269       .  S
C223        O229   1.263       .  A
C223        O231   1.257       .  A
C223       C1861   1.436       .  S
O224        C232   1.259       .  A
O225        C232   1.262       .  A
C226        O233   1.260       .  A
C226        O227   1.259       .  A
C226       C1837   1.444       .  S
C228        O230   1.258       .  A
C228        O234   1.261       .  A
C228       C1845   1.445       .  S
C232       C1893   1.436       .  S
In235       O237   2.236       .  S
In235       O238   2.255       .  S
In235       O246   2.263       .  S
In235       O240   2.253       .  S
In235       O242   2.270       .  S
In235       O243   2.248       .  S
In235       O244   2.227       .  S
In235       O247   2.267       .  S
C236        O242   1.263       .  A
C236        O244   1.257       .  A
C236       C1833   1.436       .  S
O237        C245   1.259       .  A
O238        C245   1.262       .  A
C239        O246   1.260       .  A
C239        O240   1.259       .  A
C239       C1821   1.444       .  S
C241        O243   1.258       .  A
C241        O247   1.261       .  A
C241       C1829   1.443       .  S
C245       C1828   1.435       .  S
In248       O250   2.236       .  S
In248       O251   2.256       .  S
In248       O259   2.265       .  S
In248       O253   2.255       .  S
In248       O255   2.266       .  S
In248       O256   2.252       .  S
In248       O257   2.228       .  S
In248       O260   2.266       .  S
C249        O255   1.263       .  A
C249        O257   1.257       .  A
C249       C1820   1.436       .  S
O250        C258   1.259       .  A
O251        C258   1.262       .  A
C252        O259   1.260       .  A
C252        O253   1.259       .  A
C252       C1900   1.445       .  S
C254        O256   1.259       .  A
C254        O260   1.260       .  A
C254       C1832   1.444       .  S
C258       C1816   1.436       .  S
In261       O263   2.237       .  S
In261       O264   2.257       .  S
In261       O272   2.264       .  S
In261       O266   2.254       .  S
In261       O268   2.268       .  S
In261       O269   2.251       .  S
In261       O270   2.228       .  S
In261       O273   2.266       .  S
C262        O268   1.263       .  A
C262        O270   1.257       .  A
C262       C1812   1.436       .  S
O263        C271   1.259       .  A
O264        C271   1.262       .  A
C265        O272   1.260       .  A
C265        O266   1.259       .  A
C265       C1849   1.444       .  S
C267        O269   1.259       .  A
C267        O273   1.261       .  A
C267       C1808   1.444       .  S
C271       C1836   1.437       .  S
In274       O276   2.235       .  S
In274       O277   2.256       .  S
In274       O285   2.264       .  S
In274       O279   2.254       .  S
In274       O281   2.269       .  S
In274       O282   2.249       .  S
In274       O283   2.226       .  S
In274       O286   2.267       .  S
C275        O281   1.263       .  A
C275        O283   1.257       .  A
C275       C1813   1.436       .  S
O276        C284   1.259       .  A
O277        C284   1.262       .  A
C278        O285   1.260       .  A
C278        O279   1.259       .  A
C278       C1797   1.444       .  S
C280        O282   1.258       .  A
C280        O286   1.261       .  A
C280       C1805   1.444       .  S
C284       C1804   1.436       .  S
In287       O289   2.236       .  S
In287       O290   2.256       .  S
In287       O298   2.265       .  S
In287       O292   2.255       .  S
In287       O294   2.267       .  S
In287       O295   2.251       .  S
In287       O296   2.226       .  S
In287       O299   2.267       .  S
C288        O294   1.263       .  A
C288        O296   1.257       .  A
C288       C1825   1.435       .  S
O289        C297   1.259       .  A
O290        C297   1.262       .  A
C291        O298   1.260       .  A
C291        O292   1.259       .  A
C291       C1789   1.445       .  S
C293        O295   1.259       .  A
C293        O299   1.261       .  A
C293       C1793   1.445       .  S
C297       C1809   1.436       .  S
In300       O302   2.236       .  S
In300       O303   2.256       .  S
In300       O311   2.262       .  S
In300       O305   2.257       .  S
In300       O307   2.267       .  S
In300       O308   2.249       .  S
In300       O309   2.228       .  S
In300       O312   2.268       .  S
C301        O307   1.263       .  A
C301        O309   1.257       .  A
C301       C1801   1.436       .  S
O302        C310   1.259       .  A
O303        C310   1.262       .  A
C304        O311   1.260       .  A
C304        O305   1.260       .  A
C304       C1788   1.444       .  S
C306        O308   1.259       .  A
C306        O312   1.261       .  A
C306       C1796   1.444       .  S
C310       C1817   1.436       .  S
In313       O315   2.237       .  S
In313       O316   2.257       .  S
In313       O324   2.265       .  S
In313       O318   2.256       .  S
In313       O320   2.269       .  S
In313       O321   2.251       .  S
In313       O322   2.228       .  S
In313       O325   2.270       .  S
C314        O320   1.263       .  A
C314        O322   1.257       .  A
C314       C1784   1.436       .  S
O315        C323   1.259       .  A
O316        C323   1.262       .  A
C317        O324   1.260       .  A
C317        O318   1.259       .  A
C317       C1769   1.445       .  S
C319        O321   1.259       .  A
C319        O325   1.261       .  A
C319       C1780   1.445       .  S
C323       C1776   1.436       .  S
In326       O328   2.238       .  S
In326       O329   2.256       .  S
In326       O337   2.264       .  S
In326       O331   2.255       .  S
In326       O333   2.268       .  S
In326       O334   2.249       .  S
In326       O335   2.224       .  S
In326       O338   2.270       .  S
C327        O333   1.263       .  A
C327        O335   1.257       .  A
C327       C1765   1.435       .  S
O328        C336   1.259       .  A
O329        C336   1.262       .  A
C330        O337   1.260       .  A
C330        O331   1.259       .  A
C330       C1840   1.444       .  S
C332        O334   1.258       .  A
C332        O338   1.261       .  A
C332       C1777   1.445       .  S
C336       C1764   1.436       .  S
In339       O341   2.238       .  S
In339       O342   2.256       .  S
In339       O350   2.264       .  S
In339       O344   2.257       .  S
In339       O346   2.268       .  S
In339       O347   2.251       .  S
In339       O348   2.228       .  S
In339       O351   2.268       .  S
C340        O346   1.263       .  A
C340        O348   1.257       .  A
C340       C1761   1.436       .  S
O341        C349   1.259       .  A
O342        C349   1.262       .  A
C343        O350   1.260       .  A
C343        O344   1.259       .  A
C343       C1752   1.445       .  S
C345        O347   1.259       .  A
C345        O351   1.261       .  A
C345       C1757   1.445       .  S
C349       C1756   1.436       .  S
In352       O354   2.237       .  S
In352       O355   2.257       .  S
In352       O363   2.265       .  S
In352       O357   2.255       .  S
In352       O359   2.267       .  S
In352       O360   2.253       .  S
In352       O361   2.226       .  S
In352       O364   2.268       .  S
C353        O359   1.263       .  A
C353        O361   1.257       .  A
C353       C1745   1.435       .  S
O354        C362   1.259       .  A
O355        C362   1.262       .  A
C356        O363   1.260       .  A
C356        O357   1.259       .  A
C356       C1744   1.445       .  S
C358        O360   1.259       .  A
C358        O364   1.261       .  A
C358       C1760   1.446       .  S
C362       C1781   1.437       .  S
In365       O367   2.235       .  S
In365       O368   2.255       .  S
In365       O376   2.265       .  S
In365       O370   2.256       .  S
In365       O372   2.269       .  S
In365       O373   2.249       .  S
In365       O374   2.228       .  S
In365       O377   2.267       .  S
C366        O372   1.263       .  A
C366        O374   1.257       .  A
C366       C1773   1.436       .  S
O367        C375   1.259       .  A
O368        C375   1.262       .  A
C369        O376   1.261       .  A
C369        O370   1.259       .  A
C369       C1733   1.445       .  S
C371        O373   1.258       .  A
C371        O377   1.261       .  A
C371       C1740   1.444       .  S
C375       C1748   1.435       .  S
In378       O380   2.238       .  S
In378       O381   2.256       .  S
In378       O389   2.266       .  S
In378       O383   2.255       .  S
In378       O385   2.266       .  S
In378       O386   2.252       .  S
In378       O387   2.228       .  S
In378       O390   2.266       .  S
C379        O385   1.263       .  A
C379        O387   1.257       .  A
C379       C1753   1.436       .  S
O380        C388   1.258       .  A
O381        C388   1.262       .  A
C382        O389   1.260       .  A
C382        O383   1.259       .  A
C382       C1729   1.445       .  S
C384        O386   1.259       .  A
C384        O390   1.261       .  A
C384       C1737   1.444       .  S
C388       C1768   1.436       .  S
In391       O393   2.236       .  S
In391       O394   2.257       .  S
In391       O402   2.265       .  S
In391       O396   2.255       .  S
In391       O398   2.269       .  S
In391       O399   2.251       .  S
In391       O400   2.227       .  S
In391       O403   2.269       .  S
C392        O398   1.263       .  A
C392        O400   1.257       .  A
C392       C1728   1.436       .  S
O393        C401   1.259       .  A
O394        C401   1.262       .  A
C395        O402   1.261       .  A
C395        O396   1.259       .  A
C395       C1716   1.445       .  S
C397        O399   1.258       .  A
C397        O403   1.261       .  A
C397       C1724   1.445       .  S
C401       C1717   1.436       .  S
In404       O406   2.236       .  S
In404       O407   2.254       .  S
In404       O415   2.264       .  S
In404       O409   2.255       .  S
In404       O411   2.267       .  S
In404       O412   2.251       .  S
In404       O413   2.227       .  S
In404       O416   2.268       .  S
C405        O411   1.263       .  A
C405        O413   1.257       .  A
C405       C1709   1.436       .  S
O406        C414   1.259       .  A
O407        C414   1.262       .  A
C408        O415   1.260       .  A
C408        O409   1.259       .  A
C408       C1704   1.444       .  S
C410        O412   1.259       .  A
C410        O416   1.261       .  A
C410       C1721   1.445       .  S
C414       C1708   1.435       .  S
In417       O419   2.236       .  S
In417       O420   2.255       .  S
In417       O428   2.263       .  S
In417       O422   2.255       .  S
In417       O424   2.265       .  S
In417       O425   2.251       .  S
In417       O426   2.224       .  S
In417       O429   2.268       .  S
C418        O424   1.263       .  A
C418        O426   1.257       .  A
C418       C1705   1.434       .  S
O419        C427   1.259       .  A
O420        C427   1.262       .  A
C421        O428   1.260       .  A
C421        O422   1.259       .  A
C421       C1960   1.443       .  S
C423        O425   1.258       .  A
C423        O429   1.261       .  A
C423       C1700   1.445       .  S
C427       C1693   1.435       .  S
In430       O432   2.238       .  S
In430       O433   2.257       .  S
In430       O441   2.263       .  S
In430       O435   2.256       .  S
In430       O437   2.268       .  S
In430       O438   2.252       .  S
In430       O439   2.228       .  S
In430       O442   2.269       .  S
C431        O437   1.263       .  A
C431        O439   1.257       .  A
C431       C1689   1.436       .  S
O432        C440   1.259       .  A
O433        C440   1.262       .  A
C434        O441   1.260       .  A
C434        O435   1.259       .  A
C434       C1741   1.445       .  S
C436        O438   1.259       .  A
C436        O442   1.261       .  A
C436       C1697   1.445       .  S
C440       C1725   1.437       .  S
In443       O445   2.236       .  S
In443       O446   2.258       .  S
In443       O454   2.262       .  S
In443       O448   2.255       .  S
In443       O450   2.267       .  S
In443       O451   2.251       .  S
In443       O452   2.226       .  S
In443       O455   2.269       .  S
C444        O450   1.263       .  A
C444        O452   1.257       .  A
C444       C1720   1.436       .  S
O445        C453   1.259       .  A
O446        C453   1.262       .  A
C447        O454   1.260       .  A
C447        O448   1.259       .  A
C447       C1681   1.444       .  S
C449        O451   1.258       .  A
C449        O455   1.261       .  A
C449       C1685   1.445       .  S
C453       C1692   1.436       .  S
In456       O458   2.237       .  S
In456       O459   2.255       .  S
In456       O467   2.263       .  S
In456       O461   2.255       .  S
In456       O463   2.268       .  S
In456       O464   2.250       .  S
In456       O465   2.225       .  S
In456       O468   2.268       .  S
C457        O463   1.263       .  A
C457        O465   1.257       .  A
C457       C1696   1.435       .  S
O458        C466   1.259       .  A
O459        C466   1.262       .  A
C460        O467   1.260       .  A
C460        O461   1.259       .  A
C460       C1677   1.444       .  S
C462        O464   1.259       .  A
C462        O468   1.261       .  A
C462       C1688   1.445       .  S
C466       C1712   1.436       .  S
In469       O471   2.236       .  S
In469       O472   2.255       .  S
In469       O480   2.265       .  S
In469       O474   2.256       .  S
In469       O476   2.266       .  S
In469       O477   2.252       .  S
In469       O478   2.228       .  S
In469       O481   2.270       .  S
C470        O476   1.263       .  A
C470        O478   1.257       .  A
C470       C1673   1.435       .  S
O471        C479   1.259       .  A
O472        C479   1.262       .  A
C473        O480   1.260       .  A
C473        O474   1.259       .  A
C473       C1713   1.445       .  S
C475        O477   1.258       .  A
C475        O481   1.261       .  A
C475       C1669   1.445       .  S
C479       C1668   1.435       .  S
In482       O484   2.238       .  S
In482       O485   2.258       .  S
In482       O493   2.263       .  S
In482       O487   2.255       .  S
In482       O489   2.268       .  S
In482       O490   2.252       .  S
In482       O491   2.227       .  S
In482       O494   2.269       .  S
C483        O489   1.263       .  A
C483        O491   1.257       .  A
C483       C1661   1.436       .  S
O484        C492   1.259       .  A
O485        C492   1.262       .  A
C486        O493   1.260       .  A
C486        O487   1.259       .  A
C486       C1785   1.444       .  S
C488        O490   1.259       .  A
C488        O494   1.261       .  A
C488       C1672   1.445       .  S
C492       C1660   1.437       .  S
In495       O497   2.236       .  S
In495       O498   2.255       .  S
In495       O506   2.265       .  S
In495       O500   2.255       .  S
In495       O502   2.267       .  S
In495       O503   2.251       .  S
In495       O504   2.227       .  S
In495       O507   2.267       .  S
C496        O502   1.263       .  A
C496        O504   1.257       .  A
C496       C1665   1.435       .  S
O497        C505   1.259       .  A
O498        C505   1.262       .  A
C499        O506   1.260       .  A
C499        O500   1.259       .  A
C499       C1736   1.445       .  S
C501        O503   1.259       .  A
C501        O507   1.261       .  A
C501       C1653   1.444       .  S
C505       C1649   1.436       .  S
In508       O510   2.238       .  S
In508       O511   2.255       .  S
In508       O519   2.262       .  S
In508       O513   2.253       .  S
In508       O515   2.266       .  S
In508       O516   2.250       .  S
In508       O517   2.226       .  S
In508       O520   2.267       .  S
C509        O515   1.263       .  A
C509        O517   1.257       .  A
C509       C1648   1.435       .  S
O510        C518   1.259       .  A
O511        C518   1.262       .  A
C512        O519   1.260       .  A
C512        O513   1.259       .  A
C512       C1941   1.443       .  S
C514        O516   1.259       .  A
C514        O520   1.261       .  A
C514       C1656   1.444       .  S
C518       C1664   1.436       .  S
In521       O523   2.236       .  S
In521       O524   2.256       .  S
In521       O532   2.264       .  S
In521       O526   2.255       .  S
In521       O528   2.267       .  S
In521       O529   2.251       .  S
In521       O530   2.226       .  S
In521       O533   2.269       .  S
C522        O528   1.263       .  A
C522        O530   1.257       .  A
C522       C1657   1.436       .  S
O523        C531   1.258       .  A
O524        C531   1.262       .  A
C525        O532   1.260       .  A
C525        O526   1.259       .  A
C525       C1637   1.444       .  S
C527        O529   1.259       .  A
C527        O533   1.261       .  A
C527       C1644   1.445       .  S
C531       C1645   1.435       .  S
In534       O536   2.235       .  S
In534       O537   2.255       .  S
In534       O545   2.264       .  S
In534       O539   2.255       .  S
In534       O541   2.268       .  S
In534       O542   2.250       .  S
In534       O543   2.225       .  S
In534       O546   2.269       .  S
C535        O541   1.263       .  A
C535        O543   1.257       .  A
C535       C1652   1.435       .  S
O536        C544   1.258       .  A
O537        C544   1.262       .  A
C538        O545   1.260       .  A
C538        O539   1.259       .  A
C538       C1633   1.444       .  S
C540        O542   1.258       .  A
C540        O546   1.261       .  A
C540       C1641   1.445       .  S
C544       C1676   1.435       .  S
In547       O549   2.236       .  S
In547       O550   2.255       .  S
In547       O558   2.265       .  S
In547       O552   2.256       .  S
In547       O554   2.269       .  S
In547       O555   2.251       .  S
In547       O556   2.227       .  S
In547       O559   2.267       .  S
C548        O554   1.263       .  A
C548        O556   1.257       .  A
C548       C1629   1.436       .  S
O549        C557   1.259       .  A
O550        C557   1.262       .  A
C551        O558   1.260       .  A
C551        O552   1.259       .  A
C551       C1617   1.445       .  S
C553        O555   1.259       .  A
C553        O559   1.261       .  A
C553       C1625   1.445       .  S
C557       C1621   1.435       .  S
In560       O562   2.236       .  S
In560       O563   2.258       .  S
In560       O571   2.264       .  S
In560       O565   2.254       .  S
In560       O567   2.265       .  S
In560       O568   2.252       .  S
In560       O569   2.228       .  S
In560       O572   2.268       .  S
C561        O567   1.263       .  A
C561        O569   1.258       .  A
C561       C1613   1.436       .  S
O562        C570   1.258       .  A
O563        C570   1.262       .  A
C564        O571   1.260       .  A
C564        O565   1.259       .  A
C564       C1860   1.444       .  S
C566        O568   1.259       .  A
C566        O572   1.261       .  A
C566       C1628   1.445       .  S
C570       C1612   1.436       .  S
In573       O575   2.237       .  S
In573       O576   2.256       .  S
In573       O584   2.264       .  S
In573       O578   2.255       .  S
In573       O580   2.267       .  S
In573       O581   2.252       .  S
In573       O582   2.226       .  S
In573       O585   2.269       .  S
C574        O580   1.263       .  A
C574        O582   1.257       .  A
C574       C1624   1.435       .  S
O575        C583   1.258       .  A
O576        C583   1.262       .  A
C577        O584   1.260       .  A
C577        O578   1.259       .  A
C577       C1964   1.444       .  S
C579        O581   1.259       .  A
C579        O585   1.261       .  A
C579       C1605   1.446       .  S
C583       C1601   1.436       .  S
In586       O588   2.237       .  S
In586       O589   2.256       .  S
In586       O597   2.264       .  S
In586       O591   2.255       .  S
In586       O593   2.269       .  S
In586       O594   2.251       .  S
In586       O595   2.227       .  S
In586       O598   2.270       .  S
C587        O593   1.263       .  A
C587        O595   1.257       .  A
C587       C1597   1.436       .  S
O588        C596   1.259       .  A
O589        C596   1.262       .  A
C590        O597   1.261       .  A
C590        O591   1.259       .  A
C590       C1749   1.445       .  S
C592        O594   1.259       .  A
C592        O598   1.261       .  A
C592       C1608   1.446       .  S
C596       C1616   1.436       .  S
In599       O601   2.236       .  S
In599       O602   2.256       .  S
In599       O610   2.266       .  S
In599       O604   2.255       .  S
In599       O606   2.267       .  S
In599       O607   2.252       .  S
In599       O608   2.227       .  S
In599       O611   2.268       .  S
C600        O606   1.263       .  A
C600        O608   1.257       .  A
C600       C1604   1.436       .  S
O601        C609   1.259       .  A
O602        C609   1.262       .  A
C603        O610   1.260       .  A
C603        O604   1.259       .  A
C603       C1589   1.445       .  S
C605        O607   1.259       .  A
C605        O611   1.261       .  A
C605       C1593   1.445       .  S
C609       C1632   1.436       .  S
In612       O614   2.238       .  S
In612       O615   2.255       .  S
In612       O623   2.263       .  S
In612       O617   2.256       .  S
In612       O619   2.267       .  S
In612       O620   2.251       .  S
In612       O621   2.227       .  S
In612       O624   2.269       .  S
C613        O619   1.263       .  A
C613        O621   1.257       .  A
C613       C1609   1.436       .  S
O614        C622   1.259       .  A
O615        C622   1.262       .  A
C616        O623   1.260       .  A
C616        O617   1.259       .  A
C616       C1585   1.444       .  S
C618        O620   1.258       .  A
C618        O624   1.261       .  A
C618       C1596   1.445       .  S
C622       C1600   1.436       .  S
In625       O627   2.237       .  S
In625       O628   2.257       .  S
In625       O636   2.264       .  S
In625       O630   2.255       .  S
In625       O632   2.269       .  S
In625       O633   2.250       .  S
In625       O634   2.229       .  S
In625       O637   2.266       .  S
C626        O632   1.263       .  A
C626        O634   1.257       .  A
C626       C1581   1.436       .  S
O627        C635   1.259       .  A
O628        C635   1.262       .  A
C629        O636   1.260       .  A
C629        O630   1.259       .  A
C629       C1772   1.445       .  S
C631        O633   1.259       .  A
C631        O637   1.261       .  A
C631       C1577   1.444       .  S
C635       C1573   1.436       .  S
In638       O640   2.236       .  S
In638       O641   2.257       .  S
In638       O649   2.265       .  S
In638       O643   2.253       .  S
In638       O645   2.266       .  S
In638       O646   2.251       .  S
In638       O647   2.226       .  S
In638       O650   2.267       .  S
C639        O645   1.263       .  A
C639        O647   1.257       .  A
C639       C1569   1.435       .  S
O640        C648   1.258       .  A
O641        C648   1.262       .  A
C642        O649   1.260       .  A
C642        O643   1.259       .  A
C642       C1561   1.444       .  S
C644        O646   1.259       .  A
C644        O650   1.261       .  A
C644       C1580   1.444       .  S
C648       C1568   1.436       .  S
In651       O653   2.236       .  S
In651       O654   2.255       .  S
In651       O662   2.263       .  S
In651       O656   2.257       .  S
In651       O658   2.268       .  S
In651       O659   2.250       .  S
In651       O660   2.226       .  S
In651       O663   2.269       .  S
C652        O658   1.263       .  A
C652        O660   1.257       .  A
C652       C1565   1.436       .  S
O653        C661   1.259       .  A
O654        C661   1.262       .  A
C655        O662   1.260       .  A
C655        O656   1.260       .  A
C655       C1549   1.445       .  S
C657        O659   1.258       .  A
C657        O663   1.261       .  A
C657       C1560   1.445       .  S
C661       C1556   1.436       .  S
In664       O666   2.236       .  S
In664       O667   2.256       .  S
In664       O675   2.263       .  S
In664       O669   2.254       .  S
In664       O671   2.266       .  S
In664       O672   2.251       .  S
In664       O673   2.225       .  S
In664       O676   2.268       .  S
C665        O671   1.263       .  A
C665        O673   1.257       .  A
C665       C1548   1.435       .  S
O666        C674   1.259       .  A
O667        C674   1.262       .  A
C668        O675   1.260       .  A
C668        O669   1.259       .  A
C668       C1636   1.444       .  S
C670        O672   1.259       .  A
C670        O676   1.261       .  A
C670       C1557   1.445       .  S
C674       C1584   1.437       .  S
In677       O679   2.235       .  S
In677       O680   2.254       .  S
In677       O688   2.264       .  S
In677       O682   2.254       .  S
In677       O684   2.267       .  S
In677       O685   2.251       .  S
In677       O686   2.227       .  S
In677       O689   2.266       .  S
C678        O684   1.263       .  A
C678        O686   1.257       .  A
C678       C1576   1.436       .  S
O679        C687   1.259       .  A
O680        C687   1.262       .  A
C681        O688   1.260       .  A
C681        O682   1.259       .  A
C681       C1684   1.444       .  S
C683        O685   1.259       .  A
C683        O689   1.261       .  A
C683       C1541   1.444       .  S
C687       C1545   1.435       .  S
In690       O692   2.237       .  S
In690       O693   2.256       .  S
In690       O701   2.264       .  S
In690       O695   2.256       .  S
In690       O697   2.267       .  S
In690       O698   2.251       .  S
In690       O699   2.227       .  S
In690       O702   2.269       .  S
C691        O697   1.263       .  A
C691        O699   1.257       .  A
C691       C1553   1.436       .  S
O692        C700   1.259       .  A
O693        C700   1.262       .  A
C694        O701   1.260       .  A
C694        O695   1.259       .  A
C694       C1537   1.445       .  S
C696        O698   1.258       .  A
C696        O702   1.261       .  A
C696       C1544   1.444       .  S
C700       C1572   1.435       .  S
In703       O705   2.236       .  S
In703       O706   2.255       .  S
In703       O714   2.262       .  S
In703       O708   2.255       .  S
In703       O710   2.267       .  S
In703       O711   2.250       .  S
In703       O712   2.226       .  S
In703       O715   2.269       .  S
C704        O710   1.263       .  A
C704        O712   1.257       .  A
C704       C1533   1.436       .  S
O705        C713   1.259       .  A
O706        C713   1.262       .  A
C707        O714   1.260       .  A
C707        O708   1.259       .  A
C707       C1824   1.444       .  S
C709        O711   1.259       .  A
C709        O715   1.261       .  A
C709       C1529   1.445       .  S
C713       C1525   1.436       .  S
In716       O718   2.237       .  S
In716       O719   2.257       .  S
In716       O727   2.262       .  S
In716       O721   2.255       .  S
In716       O723   2.267       .  S
In716       O724   2.250       .  S
In716       O725   2.225       .  S
In716       O728   2.268       .  S
C717        O723   1.263       .  A
C717        O725   1.257       .  A
C717       C1524   1.435       .  S
O718        C726   1.259       .  A
O719        C726   1.262       .  A
C720        O727   1.260       .  A
C720        O721   1.260       .  A
C720       C1513   1.444       .  S
C722        O724   1.259       .  A
C722        O728   1.261       .  A
C722       C1532   1.445       .  S
C726       C1517   1.437       .  S
In729       O731   2.237       .  S
In729       O732   2.259       .  S
In729       O740   2.264       .  S
In729       O734   2.255       .  S
In729       O736   2.268       .  S
In729       O737   2.251       .  S
In729       O738   2.228       .  S
In729       O741   2.268       .  S
C730        O736   1.263       .  A
C730        O738   1.257       .  A
C730       C1520   1.436       .  S
O731        C739   1.258       .  A
O732        C739   1.262       .  A
C733        O740   1.260       .  A
C733        O734   1.259       .  A
C733       C1501   1.444       .  S
C735        O737   1.259       .  A
C735        O741   1.261       .  A
C735       C1509   1.445       .  S
C739       C1508   1.436       .  S
In742       O744   2.237       .  S
In742       O745   2.258       .  S
In742       O753   2.266       .  S
In742       O747   2.257       .  S
In742       O749   2.269       .  S
In742       O750   2.251       .  S
In742       O751   2.226       .  S
In742       O754   2.268       .  S
C743        O749   1.263       .  A
C743        O751   1.257       .  A
C743       C1497   1.436       .  S
O744        C752   1.258       .  A
O745        C752   1.262       .  A
C746        O753   1.260       .  A
C746        O747   1.259       .  A
C746       C1496   1.445       .  S
C748        O750   1.259       .  A
C748        O754   1.261       .  A
C748       C1512   1.445       .  S
C752       C1536   1.436       .  S
In755       O757   2.238       .  S
In755       O758   2.255       .  S
In755       O766   2.266       .  S
In755       O760   2.257       .  S
In755       O762   2.269       .  S
In755       O763   2.251       .  S
In755       O764   2.228       .  S
In755       O767   2.268       .  S
C756        O762   1.263       .  A
C756        O764   1.257       .  A
C756       C1528   1.436       .  S
O757        C765   1.259       .  A
O758        C765   1.262       .  A
C759        O766   1.260       .  A
C759        O760   1.259       .  A
C759       C1844   1.446       .  S
C761        O763   1.258       .  A
C761        O767   1.261       .  A
C761       C1489   1.444       .  S
C765       C1500   1.436       .  S
In768       O770   2.236       .  S
In768       O771   2.254       .  S
In768       O779   2.263       .  S
In768       O773   2.255       .  S
In768       O775   2.266       .  S
In768       O776   2.253       .  S
In768       O777   2.229       .  S
In768       O780   2.266       .  S
C769        O775   1.263       .  A
C769        O777   1.258       .  A
C769       C1505   1.436       .  S
O770        C778   1.259       .  A
O771        C778   1.262       .  A
C772        O779   1.260       .  A
C772        O773   1.259       .  A
C772       C1564   1.444       .  S
C774        O776   1.259       .  A
C774        O780   1.260       .  A
C774       C1492   1.444       .  S
C778       C1521   1.435       .  S
In781       O783   2.237       .  S
In781       O784   2.256       .  S
In781       O792   2.263       .  S
In781       O786   2.257       .  S
In781       O788   2.268       .  S
In781       O789   2.250       .  S
In781       O790   2.227       .  S
In781       O793   2.269       .  S
C782        O788   1.263       .  A
C782        O790   1.257       .  A
C782       C1485   1.436       .  S
O783        C791   1.258       .  A
O784        C791   1.262       .  A
C785        O792   1.260       .  A
C785        O786   1.259       .  A
C785       C1476   1.444       .  S
C787        O789   1.258       .  A
C787        O793   1.261       .  A
C787       C1481   1.445       .  S
C791       C1477   1.435       .  S
In794       O796   2.237       .  S
In794       O797   2.256       .  S
In794       O805   2.265       .  S
In794       O799   2.254       .  S
In794       O801   2.265       .  S
In794       O802   2.252       .  S
In794       O803   2.226       .  S
In794       O806   2.268       .  S
C795        O801   1.263       .  A
C795        O803   1.257       .  A
C795       C1469   1.435       .  S
O796        C804   1.258       .  A
O797        C804   1.262       .  A
C798        O805   1.260       .  A
C798        O799   1.259       .  A
C798       C1640   1.444       .  S
C800        O802   1.259       .  A
C800        O806   1.261       .  A
C800       C1484   1.445       .  S
C804       C1465   1.436       .  S
In807       O809   2.235       .  S
In807       O810   2.255       .  S
In807       O818   2.265       .  S
In807       O812   2.255       .  S
In807       O814   2.266       .  S
In807       O815   2.254       .  S
In807       O816   2.227       .  S
In807       O819   2.268       .  S
C808        O814   1.263       .  A
C808        O816   1.257       .  A
C808       C1480   1.435       .  S
O809        C817   1.259       .  A
O810        C817   1.262       .  A
C811        O818   1.260       .  A
C811        O812   1.259       .  A
C811       C2004   1.445       .  S
C813        O815   1.259       .  A
C813        O819   1.261       .  A
C813       C1461   1.445       .  S
C817       C1457   1.435       .  S
In820       O822   2.235       .  S
In820       O823   2.255       .  S
In820       O831   2.265       .  S
In820       O825   2.256       .  S
In820       O827   2.268       .  S
In820       O828   2.251       .  S
In820       O829   2.229       .  S
In820       O832   2.269       .  S
C821        O827   1.263       .  A
C821        O829   1.257       .  A
C821       C1453   1.436       .  S
O822        C830   1.259       .  A
O823        C830   1.262       .  A
C824        O831   1.261       .  A
C824        O825   1.259       .  A
C824       C1917   1.446       .  S
C826        O828   1.259       .  A
C826        O832   1.261       .  A
C826       C1464   1.445       .  S
C830       C1472   1.435       .  S
In833       O835   2.236       .  S
In833       O836   2.256       .  S
In833       O844   2.263       .  S
In833       O838   2.255       .  S
In833       O840   2.266       .  S
In833       O841   2.251       .  S
In833       O842   2.227       .  S
In833       O845   2.269       .  S
C834        O840   1.263       .  A
C834        O842   1.257       .  A
C834       C1460   1.435       .  S
O835        C843   1.259       .  A
O836        C843   1.262       .  A
C837        O844   1.260       .  A
C837        O838   1.259       .  A
C837       C1620   1.445       .  S
C839        O841   1.258       .  A
C839        O845   1.261       .  A
C839       C1449   1.445       .  S
C843       C1488   1.436       .  S
In846       O848   2.235       .  S
In846       O849   2.256       .  S
In846       O857   2.262       .  S
In846       O851   2.254       .  S
In846       O853   2.266       .  S
In846       O854   2.250       .  S
In846       O855   2.225       .  S
In846       O858   2.269       .  S
C847        O853   1.263       .  A
C847        O855   1.257       .  A
C847       C1468   1.435       .  S
O848        C856   1.258       .  A
O849        C856   1.262       .  A
C850        O857   1.260       .  A
C850        O851   1.259       .  A
C850       C1800   1.444       .  S
C852        O854   1.259       .  A
C852        O858   1.261       .  A
C852       C1452   1.445       .  S
C856       C1456   1.436       .  S
In859       O861   2.236       .  S
In859       O862   2.255       .  S
In859       O870   2.265       .  S
In859       O864   2.256       .  S
In859       O866   2.267       .  S
In859       O867   2.251       .  S
In859       O868   2.227       .  S
In859       O871   2.268       .  S
C860        O866   1.263       .  A
C860        O868   1.257       .  A
C860       C1448   1.435       .  S
O861        C869   1.259       .  A
O862        C869   1.262       .  A
C863        O870   1.260       .  A
C863        O864   1.259       .  A
C863       C1972   1.444       .  S
C865        O867   1.259       .  A
C865        O871   1.261       .  A
C865       C1441   1.445       .  S
C869       C1440   1.435       .  S
In872       O874   2.237       .  S
In872       O875   2.256       .  S
In872       O883   2.263       .  S
In872       O877   2.256       .  S
In872       O879   2.266       .  S
In872       O880   2.253       .  S
In872       O881   2.228       .  S
In872       O884   2.268       .  S
C873        O879   1.263       .  A
C873        O881   1.257       .  A
C873       C1433   1.436       .  S
O874        C882   1.258       .  A
O875        C882   1.262       .  A
C876        O883   1.260       .  A
C876        O877   1.259       .  A
C876       C1504   1.444       .  S
C878        O880   1.259       .  A
C878        O884   1.261       .  A
C878       C1444   1.445       .  S
C882       C1432   1.436       .  S
In885       O887   2.235       .  S
In885       O888   2.256       .  S
In885       O896   2.265       .  S
In885       O890   2.255       .  S
In885       O892   2.270       .  S
In885       O893   2.248       .  S
In885       O894   2.227       .  S
In885       O897   2.266       .  S
C886        O892   1.263       .  A
C886        O894   1.257       .  A
C886       C1428   1.436       .  S
O887        C895   1.258       .  A
O888        C895   1.261       .  A
C889        O896   1.260       .  A
C889        O890   1.259       .  A
C889       C1592   1.444       .  S
C891        O893   1.258       .  A
C891        O897   1.261       .  A
C891       C1421   1.443       .  S
C895       C1445   1.435       .  S
In898       O900   2.235       .  S
In898       O901   2.255       .  S
In898       O909   2.263       .  S
In898       O903   2.254       .  S
In898       O905   2.267       .  S
In898       O906   2.249       .  S
In898       O907   2.226       .  S
In898       O910   2.268       .  S
C899        O905   1.263       .  A
C899        O907   1.257       .  A
C899       C1429   1.435       .  S
O900        C908   1.259       .  A
O901        C908   1.262       .  A
C902        O909   1.260       .  A
C902        O903   1.259       .  A
C902       C1413   1.444       .  S
C904        O906   1.258       .  A
C904        O910   1.261       .  A
C904       C1424   1.444       .  S
C908       C1420   1.435       .  S
In911       O913   2.237       .  S
In911       O914   2.256       .  S
In911       O922   2.264       .  S
In911       O916   2.255       .  S
In911       O918   2.267       .  S
In911       O919   2.252       .  S
In911       O920   2.226       .  S
In911       O923   2.268       .  S
C912        O918   1.263       .  A
C912        O920   1.257       .  A
C912       C1437   1.435       .  S
O913        C921   1.259       .  A
O914        C921   1.263       .  A
C915        O922   1.260       .  A
C915        O916   1.259       .  A
C915       C1473   1.444       .  S
C917        O919   1.259       .  A
C917        O923   1.260       .  A
C917       C1412   1.445       .  S
C921       C1425   1.437       .  S
In924       O926   2.236       .  S
In924       O927   2.256       .  S
In924       O935   2.264       .  S
In924       O929   2.255       .  S
In924       O931   2.268       .  S
In924       O932   2.250       .  S
In924       O933   2.227       .  S
In924       O936   2.267       .  S
C925        O931   1.263       .  A
C925        O933   1.257       .  A
C925       C1417   1.435       .  S
O926        C934   1.259       .  A
O927        C934   1.262       .  A
C928        O935   1.260       .  A
C928        O929   1.259       .  A
C928       C1552   1.445       .  S
C930        O932   1.259       .  A
C930        O936   1.261       .  A
C930       C1409   1.444       .  S
C934       C1436   1.436       .  S
In937       O939   2.236       .  S
In937       O940   2.255       .  S
In937       O948   2.264       .  S
In937       O942   2.257       .  S
In937       O944   2.266       .  S
In937       O945   2.252       .  S
In937       O946   2.226       .  S
In937       O949   2.270       .  S
C938        O944   1.263       .  A
C938        O946   1.257       .  A
C938       C1408   1.435       .  S
O939        C947   1.259       .  A
O940        C947   1.262       .  A
C941        O948   1.260       .  A
C941        O942   1.259       .  A
C941       C1732   1.445       .  S
C943        O945   1.259       .  A
C943        O949   1.261       .  A
C943       C1401   1.446       .  S
C947       C1400   1.436       .  S
In950       O952   2.236       .  S
In950       O953   2.256       .  S
In950       O961   2.265       .  S
In950       O955   2.256       .  S
In950       O957   2.268       .  S
In950       O958   2.252       .  S
In950       O959   2.227       .  S
In950       O962   2.269       .  S
C951        O957   1.263       .  A
C951        O959   1.257       .  A
C951       C1396   1.436       .  S
O952        C960   1.259       .  A
O953        C960   1.262       .  A
C954        O961   1.260       .  A
C954        O955   1.259       .  A
C954       C1929   1.445       .  S
C956        O958   1.259       .  A
C956        O962   1.261       .  A
C956       C1404   1.446       .  S
C960       C1392   1.435       .  S
In963       O965   2.236       .  S
In963       O966   2.255       .  S
In963       O974   2.265       .  S
In963       O968   2.255       .  S
In963       O970   2.268       .  S
In963       O971   2.252       .  S
In963       O972   2.228       .  S
In963       O975   2.266       .  S
C964        O970   1.263       .  A
C964        O972   1.257       .  A
C964       C1388   1.436       .  S
O965        C973   1.259       .  A
O966        C973   1.262       .  A
C967        O974   1.260       .  A
C967        O968   1.259       .  A
C967       C1377   1.444       .  S
C969        O971   1.259       .  A
C969        O975   1.261       .  A
C969       C1384   1.444       .  S
C973       C1393   1.436       .  S
In976       O978   2.236       .  S
In976       O979   2.255       .  S
In976       O987   2.264       .  S
In976       O981   2.255       .  S
In976       O983   2.268       .  S
In976       O984   2.250       .  S
In976       O985   2.228       .  S
In976       O988   2.267       .  S
C977        O983   1.263       .  A
C977        O985   1.257       .  A
C977       C1397   1.435       .  S
O978        C986   1.259       .  A
O979        C986   1.262       .  A
C980        O987   1.260       .  A
C980        O981   1.259       .  A
C980       C1588   1.444       .  S
C982        O984   1.258       .  A
C982        O988   1.261       .  A
C982       C1381   1.444       .  S
C986       C1373   1.436       .  S
In989       O991   2.235       .  S
In989       O992   2.258       .  S
In989      O1000   2.263       .  S
In989       O994   2.254       .  S
In989       O996   2.266       .  S
In989       O997   2.252       .  S
In989       O998   2.224       .  S
In989      O1001   2.271       .  S
C990        O996   1.263       .  A
C990        O998   1.257       .  A
C990       C1389   1.435       .  S
O991        C999   1.258       .  A
O992        C999   1.262       .  A
C993       O1000   1.260       .  A
C993        O994   1.259       .  A
C993       C1365   1.444       .  S
C995        O997   1.259       .  A
C995       O1001   1.261       .  A
C995       C1372   1.446       .  S
C999       C1385   1.436       .  S
In1002     O1004   2.236       .  S
In1002     O1005   2.257       .  S
In1002     O1013   2.263       .  S
In1002     O1007   2.255       .  S
In1002     O1009   2.267       .  S
In1002     O1010   2.251       .  S
In1002     O1011   2.225       .  S
In1002     O1014   2.270       .  S
C1003      O1009   1.263       .  A
C1003      O1011   1.257       .  A
C1003      C1376   1.436       .  S
O1004      C1012   1.258       .  A
O1005      C1012   1.262       .  A
C1006      O1013   1.259       .  A
C1006      O1007   1.259       .  A
C1006      C1884   1.447       .  S
C1008      O1010   1.259       .  A
C1008      O1014   1.261       .  A
C1008      C1369   1.446       .  S
C1012      C1405   1.436       .  S
In1015     O1017   2.237       .  S
In1015     O1018   2.256       .  S
In1015     O1026   2.265       .  S
In1015     O1020   2.255       .  S
In1015     O1022   2.268       .  S
In1015     O1023   2.251       .  S
In1015     O1024   2.228       .  S
In1015     O1027   2.269       .  S
C1016      O1022   1.263       .  A
C1016      O1024   1.257       .  A
C1016      C1361   1.436       .  S
O1017      C1025   1.259       .  A
O1018      C1025   1.262       .  A
C1019      O1026   1.260       .  A
C1019      O1020   1.259       .  A
C1019      C1380   1.445       .  S
C1021      O1023   1.258       .  A
C1021      O1027   1.261       .  A
C1021      C1360   1.445       .  S
C1025      C1353   1.436       .  S
In1028     O1030   2.237       .  S
In1028     O1031   2.256       .  S
In1028     O1039   2.265       .  S
In1028     O1033   2.253       .  S
In1028     O1035   2.265       .  S
In1028     O1036   2.253       .  S
In1028     O1037   2.228       .  S
In1028     O1040   2.268       .  S
C1029      O1035   1.263       .  A
C1029      O1037   1.257       .  A
C1029      C1349   1.435       .  S
O1030      C1038   1.258       .  A
O1031      C1038   1.262       .  A
C1032      O1039   1.260       .  A
C1032      O1033   1.259       .  A
C1032      C1416   1.444       .  S
C1034      O1036   1.259       .  A
C1034      O1040   1.261       .  A
C1034      C1357   1.445       .  S
C1038      C1348   1.436       .  S
In1041     O1043   2.237       .  S
In1041     O1044   2.257       .  S
In1041     O1052   2.265       .  S
In1041     O1046   2.256       .  S
In1041     O1048   2.268       .  S
In1041     O1049   2.253       .  S
In1041     O1050   2.225       .  S
In1041     O1053   2.270       .  S
C1042      O1048   1.263       .  A
C1042      O1050   1.257       .  A
C1042      C1356   1.435       .  S
O1043      C1051   1.259       .  A
O1044      C1051   1.262       .  A
C1045      O1052   1.260       .  A
C1045      O1046   1.259       .  A
C1045      C1333   1.445       .  S
C1047      O1049   1.259       .  A
C1047      O1053   1.261       .  A
C1047      C1344   1.446       .  S
C1051      C1337   1.436       .  S
In1054     O1056   2.237       .  S
In1054     O1057   2.257       .  S
In1054     O1065   2.265       .  S
In1054     O1059   2.255       .  S
In1054     O1061   2.266       .  S
In1054     O1062   2.253       .  S
In1054     O1063   2.229       .  S
In1054     O1066   2.270       .  S
C1055      O1061   1.263       .  A
C1055      O1063   1.257       .  A
C1055      C1329   1.436       .  S
O1056      C1064   1.258       .  A
O1057      C1064   1.262       .  A
C1058      O1065   1.260       .  A
C1058      O1059   1.259       .  A
C1058      C1540   1.445       .  S
C1060      O1062   1.259       .  A
C1060      O1066   1.261       .  A
C1060      C1341   1.446       .  S
C1064      C1352   1.436       .  S
In1067     O1069   2.237       .  S
In1067     O1070   2.257       .  S
In1067     O1078   2.262       .  S
In1067     O1072   2.254       .  S
In1067     O1074   2.267       .  S
In1067     O1075   2.252       .  S
In1067     O1076   2.225       .  S
In1067     O1079   2.269       .  S
C1068      O1074   1.263       .  A
C1068      O1076   1.257       .  A
C1068      C1340   1.436       .  S
O1069      C1077   1.258       .  A
O1070      C1077   1.262       .  A
C1071      O1078   1.260       .  A
C1071      O1072   1.259       .  A
C1071      C1901   1.444       .  S
C1073      O1075   1.259       .  A
C1073      O1079   1.261       .  A
C1073      C1325   1.446       .  S
C1077      C1364   1.436       .  S
In1080     O1082   2.238       .  S
In1080     O1083   2.258       .  S
In1080     O1091   2.263       .  S
In1080     O1085   2.255       .  S
In1080     O1087   2.269       .  S
In1080     O1088   2.250       .  S
In1080     O1089   2.224       .  S
In1080     O1092   2.270       .  S
C1081      O1087   1.263       .  A
C1081      O1089   1.257       .  A
C1081      C1345   1.435       .  S
O1082      C1090   1.258       .  A
O1083      C1090   1.262       .  A
C1084      O1091   1.260       .  A
C1084      O1085   1.259       .  A
C1084      C1516   1.444       .  S
C1086      O1088   1.259       .  A
C1086      O1092   1.261       .  A
C1086      C1328   1.445       .  S
C1090      C1332   1.437       .  S
In1093     O1095   2.236       .  S
In1093     O1096   2.257       .  S
In1093     O1104   2.264       .  S
In1093     O1098   2.256       .  S
In1093     O1100   2.268       .  S
In1093     O1101   2.251       .  S
In1093     O1102   2.225       .  S
In1093     O1105   2.269       .  S
C1094      O1100   1.263       .  A
C1094      O1102   1.257       .  A
C1094      C1324   1.435       .  S
O1095      C1103   1.258       .  A
O1096      C1103   1.262       .  A
C1097      O1104   1.260       .  A
C1097      O1098   1.259       .  A
C1097      C1336   1.445       .  S
C1099      O1101   1.259       .  A
C1099      O1105   1.261       .  A
C1099      C1317   1.445       .  S
C1103      C1316   1.435       .  S
In1106     O1108   2.238       .  S
In1106     O1109   2.256       .  S
In1106     O1117   2.263       .  S
In1106     O1111   2.256       .  S
In1106     O1113   2.266       .  S
In1106     O1114   2.252       .  S
In1106     O1115   2.227       .  S
In1106     O1118   2.270       .  S
C1107      O1113   1.263       .  A
C1107      O1115   1.257       .  A
C1107      C1309   1.435       .  S
O1108      C1116   1.259       .  A
O1109      C1116   1.262       .  A
C1110      O1117   1.260       .  A
C1110      O1111   1.259       .  A
C1110      C1680   1.444       .  S
C1112      O1114   1.258       .  A
C1112      O1118   1.261       .  A
C1112      C1320   1.445       .  S
C1116      C1308   1.436       .  S
In1119     O1121   2.237       .  S
In1119     O1122   2.258       .  S
In1119     O1130   2.265       .  S
In1119     O1124   2.256       .  S
In1119     O1126   2.267       .  S
In1119     O1127   2.251       .  S
In1119     O1128   2.227       .  S
In1119     O1131   2.270       .  S
C1120      O1126   1.263       .  A
C1120      O1128   1.257       .  A
C1120      C1305   1.436       .  S
O1121      C1129   1.258       .  A
O1122      C1129   1.262       .  A
C1123      O1130   1.260       .  A
C1123      O1124   1.259       .  A
C1123      C1992   1.445       .  S
C1125      O1127   1.258       .  A
C1125      O1131   1.261       .  A
C1125      C1304   1.445       .  S
C1129      C1297   1.436       .  S
In1132     O1134   2.235       .  S
In1132     O1135   2.257       .  S
In1132     O1143   2.263       .  S
In1132     O1137   2.256       .  S
In1132     O1139   2.268       .  S
In1132     O1140   2.250       .  S
In1132     O1141   2.225       .  S
In1132     O1144   2.271       .  S
C1133      O1139   1.263       .  A
C1133      O1141   1.257       .  A
C1133      C1293   1.435       .  S
O1134      C1142   1.258       .  A
O1135      C1142   1.262       .  A
C1136      O1143   1.260       .  A
C1136      O1137   1.259       .  A
C1136      C1912   1.444       .  S
C1138      O1140   1.258       .  A
C1138      O1144   1.261       .  A
C1138      C1301   1.445       .  S
C1142      C1321   1.436       .  S
In1145     O1147   2.235       .  S
In1145     O1148   2.257       .  S
In1145     O1156   2.263       .  S
In1145     O1150   2.256       .  S
In1145     O1152   2.264       .  S
In1145     O1153   2.253       .  S
In1145     O1154   2.226       .  S
In1145     O1157   2.268       .  S
C1146      O1152   1.263       .  A
C1146      O1154   1.257       .  A
C1146      C1313   1.435       .  S
O1147      C1155   1.258       .  A
O1148      C1155   1.262       .  A
C1149      O1156   1.260       .  A
C1149      O1150   1.259       .  A
C1149      C1368   1.444       .  S
C1151      O1153   1.259       .  A
C1151      O1157   1.261       .  A
C1151      C1292   1.446       .  S
C1155      C1296   1.436       .  S
In1158     O1160   2.237       .  S
In1158     O1161   2.255       .  S
In1158     O1169   2.265       .  S
In1158     O1163   2.255       .  S
In1158     O1165   2.267       .  S
In1158     O1166   2.251       .  S
In1158     O1167   2.225       .  S
In1158     O1170   2.270       .  S
C1159      O1165   1.263       .  A
C1159      O1167   1.257       .  A
C1159      C1300   1.435       .  S
O1160      C1168   1.259       .  A
O1161      C1168   1.262       .  A
C1162      O1169   1.260       .  A
C1162      O1163   1.259       .  A
C1162      C1288   1.444       .  S
C1164      O1166   1.258       .  A
C1164      O1170   1.261       .  A
C1164      C1289   1.445       .  S
C1168      C1312   1.435       .  S
In1171     O1173   2.235       .  S
In1171     O1174   2.254       .  S
In1171     O1182   2.262       .  S
In1171     O1176   2.255       .  S
In1171     O1178   2.267       .  S
In1171     O1179   2.250       .  S
In1171     O1180   2.226       .  S
In1171     O1183   2.269       .  S
C1172      O1178   1.263       .  A
C1172      O1180   1.257       .  A
C1172      C1284   1.435       .  S
O1173      C1181   1.259       .  A
O1174      C1181   1.262       .  A
C1175      O1182   1.260       .  A
C1175      O1176   1.259       .  A
C1175      C1980   1.443       .  S
C1177      O1179   1.258       .  A
C1177      O1183   1.261       .  A
C1177      C1280   1.445       .  S
C1181      C1276   1.435       .  S
In1184     O1186   2.239       .  S
In1184     O1187   2.259       .  S
In1184     O1195   2.265       .  S
In1184     O1189   2.257       .  S
In1184     O1191   2.267       .  S
In1184     O1192   2.252       .  S
In1184     O1193   2.226       .  S
In1184     O1196   2.270       .  S
C1185      O1191   1.263       .  A
C1185      O1193   1.257       .  A
C1185      C1269   1.436       .  S
O1186      C1194   1.258       .  A
O1187      C1194   1.262       .  A
C1188      O1195   1.260       .  A
C1188      O1189   1.259       .  A
C1188      C1493   1.445       .  S
C1190      O1192   1.259       .  A
C1190      O1196   1.261       .  A
C1190      C1277   1.445       .  S
C1194      C1265   1.437       .  S
In1197     O1199   2.237       .  S
In1197     O1200   2.258       .  S
In1197     O1208   2.265       .  S
In1197     O1202   2.256       .  S
In1197     O1204   2.266       .  S
In1197     O1205   2.252       .  S
In1197     O1206   2.226       .  S
In1197     O1209   2.270       .  S
C1198      O1204   1.263       .  A
C1198      O1206   1.257       .  A
C1198      C1261   1.435       .  S
O1199      C1207   1.258       .  A
O1200      C1207   1.262       .  A
C1201      O1208   1.260       .  A
C1201      O1202   1.259       .  A
C1201      C1792   1.445       .  S
C1203      O1205   1.258       .  A
C1203      O1209   1.261       .  A
C1203      C1257   1.445       .  S
C1207      C1272   1.436       .  S
In1210     O1212   2.235       .  S
In1210     O1213   2.255       .  S
In1210     O1221   2.263       .  S
In1210     O1215   2.256       .  S
In1210     O1217   2.267       .  S
In1210     O1218   2.249       .  S
In1210     O1219   2.225       .  S
In1210     O1222   2.270       .  S
C1211      O1217   1.263       .  A
C1211      O1219   1.257       .  A
C1211      C1273   1.435       .  S
O1212      C1220   1.259       .  A
O1213      C1220   1.262       .  A
C1214      O1221   1.260       .  A
C1214      O1215   1.259       .  A
C1214      C1701   1.444       .  S
C1216      O1218   1.258       .  A
C1216      O1222   1.261       .  A
C1216      C1260   1.445       .  S
C1220      C1253   1.436       .  S
In1223     O1225   2.237       .  S
In1223     O1226   2.257       .  S
In1223     O1234   2.263       .  S
In1223     O1228   2.255       .  S
In1223     O1230   2.267       .  S
In1223     O1231   2.252       .  S
In1223     O1232   2.226       .  S
In1223     O1235   2.267       .  S
C1224      O1230   1.263       .  A
C1224      O1232   1.258       .  A
C1224      C1268   1.436       .  S
O1225      C1233   1.258       .  A
O1226      C1233   1.262       .  A
C1227      O1234   1.260       .  A
C1227      O1228   1.259       .  A
C1227      C1872   1.444       .  S
C1229      O1231   1.259       .  A
C1229      O1235   1.261       .  A
C1229      C1252   1.445       .  S
C1233      C1264   1.436       .  S
In1236     O1238   2.236       .  S
In1236     O1239   2.254       .  S
In1236     O1247   2.264       .  S
In1236     O1241   2.256       .  S
In1236     O1243   2.268       .  S
In1236     O1244   2.251       .  S
In1236     O1245   2.226       .  S
In1236     O1248   2.267       .  S
C1237      O1243   1.263       .  A
C1237      O1245   1.257       .  A
C1237      C1256   1.435       .  S
O1238      C1246   1.259       .  A
O1239      C1246   1.262       .  A
C1240      O1247   1.260       .  A
C1240      O1241   1.259       .  A
C1240      C1285   1.444       .  S
C1242      O1244   1.259       .  A
C1242      O1248   1.261       .  A
C1242      C1249   1.445       .  S
C1246      C1281   1.435       .  S
C1249      C1250   1.212       .  T
C1250      C1251   1.422       .  S
C1251      C1252   1.212       .  T
C1253      C1254   1.206       .  T
C1254      C1255   1.412       .  S
C1255      C1256   1.206       .  T
C1257      C1258   1.212       .  T
C1258      C1259   1.422       .  S
C1259      C1260   1.212       .  T
C1261      C1262   1.206       .  T
C1262      C1263   1.412       .  S
C1263      C1264   1.206       .  T
C1265      C1266   1.206       .  T
C1266      C1267   1.413       .  S
C1267      C1268   1.206       .  T
C1269      C1270   1.206       .  T
C1270      C1271   1.413       .  S
C1271      C1272   1.206       .  T
C1273      C1274   1.205       .  T
C1274      C1275   1.412       .  S
C1275      C1276   1.205       .  T
C1277      C1278   1.212       .  T
C1278      C1279   1.422       .  S
C1279      C1280   1.212       .  T
C1281      C1282   1.206       .  T
C1282      C1283   1.412       .  S
C1283      C1284   1.206       .  T
C1285      C1286   1.211       .  T
C1286      C1287   1.421       .  S
C1287      C1288   1.211   1_556  T
C1289      C1290   1.212       .  T
C1290      C1291   1.423       .  S
C1291      C1292   1.212       .  T
C1293      C1294   1.206       .  T
C1294      C1295   1.412       .  S
C1295      C1296   1.206       .  T
C1297      C1298   1.206       .  T
C1298      C1299   1.413       .  S
C1299      C1300   1.206       .  T
C1301      C1302   1.212       .  T
C1302      C1303   1.422       .  S
C1303      C1304   1.212       .  T
C1305      C1306   1.206       .  T
C1306      C1307   1.413       .  S
C1307      C1308   1.206       .  T
C1309      C1310   1.206       .  T
C1310      C1311   1.412       .  S
C1311      C1312   1.206       .  T
C1313      C1314   1.206       .  T
C1314      C1315   1.412       .  S
C1315      C1316   1.206       .  T
C1317      C1318   1.212       .  T
C1318      C1319   1.423       .  S
C1319      C1320   1.212       .  T
C1321      C1322   1.206       .  T
C1322      C1323   1.413       .  S
C1323      C1324   1.206       .  T
C1325      C1326   1.212       .  T
C1326      C1327   1.423       .  S
C1327      C1328   1.212       .  T
C1329      C1330   1.206       .  T
C1330      C1331   1.413       .  S
C1331      C1332   1.206       .  T
C1333      C1334   1.211       .  T
C1334      C1335   1.421       .  S
C1335      C1336   1.211       .  T
C1337      C1338   1.206       .  T
C1338      C1339   1.413       .  S
C1339      C1340   1.206       .  T
C1341      C1342   1.212       .  T
C1342      C1343   1.423       .  S
C1343      C1344   1.213       .  T
C1345      C1346   1.206       .  T
C1346      C1347   1.412       .  S
C1347      C1348   1.206       .  T
C1349      C1350   1.206       .  T
C1350      C1351   1.412       .  S
C1351      C1352   1.206       .  T
C1353      C1354   1.206       .  T
C1354      C1355   1.413       .  S
C1355      C1356   1.206       .  T
C1357      C1358   1.212       .  T
C1358      C1359   1.422       .  S
C1359      C1360   1.212       .  T
C1361      C1362   1.206       .  T
C1362      C1363   1.413       .  S
C1363      C1364   1.206       .  T
C1365      C1366   1.211       .  T
C1366      C1367   1.421       .  S
C1367      C1368   1.211       .  T
C1369      C1370   1.212       .  T
C1370      C1371   1.423       .  S
C1371      C1372   1.212       .  T
C1373      C1374   1.206       .  T
C1374      C1375   1.413       .  S
C1375      C1376   1.206       .  T
C1377      C1378   1.211       .  T
C1378      C1379   1.421       .  S
C1379      C1380   1.211       .  T
C1381      C1382   1.211       .  T
C1382      C1383   1.421       .  S
C1383      C1384   1.211       .  T
C1385      C1386   1.206       .  T
C1386      C1387   1.413       .  S
C1387      C1388   1.206       .  T
C1389      C1390   1.206       .  T
C1390      C1391   1.412       .  S
C1391      C1392   1.206       .  T
C1393      C1394   1.206       .  T
C1394      C1395   1.413       .  S
C1395      C1396   1.206       .  T
C1397      C1398   1.206       .  T
C1398      C1399   1.413       .  S
C1399      C1400   1.206       .  T
C1401      C1402   1.212       .  T
C1402      C1403   1.423       .  S
C1403      C1404   1.212       .  T
C1405      C1406   1.206       .  T
C1406      C1407   1.412       .  S
C1407      C1408   1.206       .  T
C1409      C1410   1.211       .  T
C1410      C1411   1.422       .  S
C1411      C1412   1.211       .  T
C1413      C1414   1.211       .  T
C1414      C1415   1.421       .  S
C1415      C1416   1.211       .  T
C1417      C1418   1.206       .  T
C1418      C1419   1.412       .  S
C1419      C1420   1.206       .  T
C1421      C1422   1.211       .  T
C1422      C1423   1.421       .  S
C1423      C1424   1.211       .  T
C1425      C1426   1.207       .  T
C1426      C1427   1.414       .  S
C1427      C1428   1.206       .  T
C1429      C1430   1.206       .  T
C1430      C1431   1.412       .  S
C1431      C1432   1.206       .  T
C1433      C1434   1.206       .  T
C1434      C1435   1.413       .  S
C1435      C1436   1.206       .  T
C1437      C1438   1.206       .  T
C1438      C1439   1.412       .  S
C1439      C1440   1.206       .  T
C1441      C1442   1.212       .  T
C1442      C1443   1.422       .  S
C1443      C1444   1.212       .  T
C1445      C1446   1.205       .  T
C1446      C1447   1.412       .  S
C1447      C1448   1.206       .  T
C1449      C1450   1.212       .  T
C1450      C1451   1.422       .  S
C1451      C1452   1.212       .  T
C1453      C1454   1.206       .  T
C1454      C1455   1.413       .  S
C1455      C1456   1.206       .  T
C1457      C1458   1.206       .  T
C1458      C1459   1.412       .  S
C1459      C1460   1.206       .  T
C1461      C1462   1.212       .  T
C1462      C1463   1.422       .  S
C1463      C1464   1.212       .  T
C1465      C1466   1.206       .  T
C1466      C1467   1.412       .  S
C1467      C1468   1.206       .  T
C1469      C1470   1.206       .  T
C1470      C1471   1.412       .  S
C1471      C1472   1.206       .  T
C1473      C1474   1.211       .  T
C1474      C1475   1.421       .  S
C1475      C1476   1.211       .  T
C1477      C1478   1.206       .  T
C1478      C1479   1.412       .  S
C1479      C1480   1.206       .  T
C1481      C1482   1.212       .  T
C1482      C1483   1.422       .  S
C1483      C1484   1.212       .  T
C1485      C1486   1.206       .  T
C1486      C1487   1.413       .  S
C1487      C1488   1.206       .  T
C1489      C1490   1.211       .  T
C1490      C1491   1.422       .  S
C1491      C1492   1.211       .  T
C1493      C1494   1.212       .  T
C1494      C1495   1.422       .  S
C1495      C1496   1.212       .  T
C1497      C1498   1.206       .  T
C1498      C1499   1.413       .  S
C1499      C1500   1.206       .  T
C1501      C1502   1.211       .  T
C1502      C1503   1.421       .  S
C1503      C1504   1.211       .  T
C1505      C1506   1.206       .  T
C1506      C1507   1.413       .  S
C1507      C1508   1.206       .  T
C1509      C1510   1.212       .  T
C1510      C1511   1.422       .  S
C1511      C1512   1.212       .  T
C1513      C1514   1.211       .  T
C1514      C1515   1.421       .  S
C1515      C1516   1.211       .  T
C1517      C1518   1.206       .  T
C1518      C1519   1.413       .  S
C1519      C1520   1.206       .  T
C1521      C1522   1.206       .  T
C1522      C1523   1.412       .  S
C1523      C1524   1.206       .  T
C1525      C1526   1.206       .  T
C1526      C1527   1.413       .  S
C1527      C1528   1.206       .  T
C1529      C1530   1.212       .  T
C1530      C1531   1.422       .  S
C1531      C1532   1.212       .  T
C1533      C1534   1.206       .  T
C1534      C1535   1.413       .  S
C1535      C1536   1.206       .  T
C1537      C1538   1.211       .  T
C1538      C1539   1.422       .  S
C1539      C1540   1.211       .  T
C1541      C1542   1.211       .  T
C1542      C1543   1.422       .  S
C1543      C1544   1.211       .  T
C1545      C1546   1.205       .  T
C1546      C1547   1.412       .  S
C1547      C1548   1.205       .  T
C1549      C1550   1.211       .  T
C1550      C1551   1.422       .  S
C1551      C1552   1.211       .  T
C1553      C1554   1.206       .  T
C1554      C1555   1.412       .  S
C1555      C1556   1.206       .  T
C1557      C1558   1.212       .  T
C1558      C1559   1.422       .  S
C1559      C1560   1.212       .  T
C1561      C1562   1.211       .  T
C1562      C1563   1.420       .  S
C1563      C1564   1.211       .  T
C1565      C1566   1.206       .  T
C1566      C1567   1.413       .  S
C1567      C1568   1.206       .  T
C1569      C1570   1.206       .  T
C1570      C1571   1.412       .  S
C1571      C1572   1.206       .  T
C1573      C1574   1.206       .  T
C1574      C1575   1.413       .  S
C1575      C1576   1.206       .  T
C1577      C1578   1.211       .  T
C1578      C1579   1.421       .  S
C1579      C1580   1.211       .  T
C1581      C1582   1.206       .  T
C1582      C1583   1.413       .  S
C1583      C1584   1.206       .  T
C1585      C1586   1.211       .  T
C1586      C1587   1.421   1_556  S
C1587      C1588   1.211       .  T
C1589      C1590   1.211       .  T
C1590      C1591   1.421       .  S
C1591      C1592   1.211       .  T
C1593      C1594   1.212       .  T
C1594      C1595   1.422       .  S
C1595      C1596   1.212       .  T
C1597      C1598   1.206       .  T
C1598      C1599   1.413       .  S
C1599      C1600   1.206       .  T
C1601      C1602   1.206       .  T
C1602      C1603   1.413       .  S
C1603      C1604   1.206       .  T
C1605      C1606   1.212       .  T
C1606      C1607   1.423       .  S
C1607      C1608   1.212       .  T
C1609      C1610   1.206       .  T
C1610      C1611   1.413       .  S
C1611      C1612   1.206       .  T
C1613      C1614   1.206       .  T
C1614      C1615   1.413       .  S
C1615      C1616   1.206       .  T
C1617      C1618   1.211       .  T
C1618      C1619   1.421       .  S
C1619      C1620   1.211       .  T
C1621      C1622   1.206       .  T
C1622      C1623   1.412       .  S
C1623      C1624   1.206       .  T
C1625      C1626   1.212       .  T
C1626      C1627   1.422       .  S
C1627      C1628   1.212       .  T
C1629      C1630   1.206       .  T
C1630      C1631   1.413       .  S
C1631      C1632   1.206       .  T
C1633      C1634   1.211       .  T
C1634      C1635   1.421       .  S
C1635      C1636   1.211       .  T
C1637      C1638   1.211   1_545  T
C1638      C1639   1.421       .  S
C1639      C1640   1.211       .  T
C1641      C1642   1.212       .  T
C1642      C1643   1.422       .  S
C1643      C1644   1.212       .  T
C1645      C1646   1.206       .  T
C1646      C1647   1.412       .  S
C1647      C1648   1.205       .  T
C1649      C1650   1.206       .  T
C1650      C1651   1.412       .  S
C1651      C1652   1.206       .  T
C1653      C1654   1.211       .  T
C1654      C1655   1.422       .  S
C1655      C1656   1.211       .  T
C1657      C1658   1.206       .  T
C1658      C1659   1.413       .  S
C1659      C1660   1.206       .  T
C1661      C1662   1.206       .  T
C1662      C1663   1.413       .  S
C1663      C1664   1.206       .  T
C1665      C1666   1.206       .  T
C1666      C1667   1.412       .  S
C1667      C1668   1.206       .  T
C1669      C1670   1.212       .  T
C1670      C1671   1.423       .  S
C1671      C1672   1.212       .  T
C1673      C1674   1.206       .  T
C1674      C1675   1.412       .  S
C1675      C1676   1.205       .  T
C1677      C1678   1.211       .  T
C1678      C1679   1.421   1_655  S
C1679      C1680   1.211       .  T
C1681      C1682   1.211       .  T
C1682      C1683   1.420       .  S
C1683      C1684   1.211       .  T
C1685      C1686   1.212       .  T
C1686      C1687   1.422       .  S
C1687      C1688   1.212       .  T
C1689      C1690   1.206       .  T
C1690      C1691   1.413       .  S
C1691      C1692   1.206       .  T
C1693      C1694   1.206       .  T
C1694      C1695   1.412       .  S
C1695      C1696   1.206       .  T
C1697      C1698   1.212       .  T
C1698      C1699   1.422       .  S
C1699      C1700   1.212       .  T
C1701      C1702   1.211       .  T
C1702      C1703   1.421   1_556  S
C1703      C1704   1.211   1_455  T
C1705      C1706   1.205       .  T
C1706      C1707   1.412       .  S
C1707      C1708   1.205       .  T
C1709      C1710   1.206       .  T
C1710      C1711   1.413       .  S
C1711      C1712   1.206       .  T
C1713      C1714   1.212       .  T
C1714      C1715   1.422       .  S
C1715      C1716   1.212       .  T
C1717      C1718   1.206       .  T
C1718      C1719   1.413       .  S
C1719      C1720   1.206       .  T
C1721      C1722   1.212       .  T
C1722      C1723   1.422       .  S
C1723      C1724   1.212       .  T
C1725      C1726   1.206       .  T
C1726      C1727   1.413       .  S
C1727      C1728   1.206       .  T
C1729      C1730   1.211   1_545  T
C1730      C1731   1.421       .  S
C1731      C1732   1.211       .  T
C1733      C1734   1.212       .  T
C1734      C1735   1.422       .  S
C1735      C1736   1.212       .  T
C1737      C1738   1.211       .  T
C1738      C1739   1.421       .  S
C1739      C1740   1.211       .  T
C1741      C1742   1.211       .  T
C1742      C1743   1.421       .  S
C1743      C1744   1.211       .  T
C1745      C1746   1.206       .  T
C1746      C1747   1.412       .  S
C1747      C1748   1.206       .  T
C1749      C1750   1.212       .  T
C1750      C1751   1.422   1_565  S
C1751      C1752   1.212   1_556  T
C1753      C1754   1.206       .  T
C1754      C1755   1.413       .  S
C1755      C1756   1.206       .  T
C1757      C1758   1.212       .  T
C1758      C1759   1.423       .  S
C1759      C1760   1.212       .  T
C1761      C1762   1.206       .  T
C1762      C1763   1.413       .  S
C1763      C1764   1.206       .  T
C1765      C1766   1.206       .  T
C1766      C1767   1.412       .  S
C1767      C1768   1.206       .  T
C1769      C1770   1.211       .  T
C1770      C1771   1.421       .  S
C1771      C1772   1.211       .  T
C1773      C1774   1.206       .  T
C1774      C1775   1.413       .  S
C1775      C1776   1.206       .  T
C1777      C1778   1.212       .  T
C1778      C1779   1.422       .  S
C1779      C1780   1.212       .  T
C1781      C1782   1.206       .  T
C1782      C1783   1.413       .  S
C1783      C1784   1.206       .  T
C1785      C1786   1.211   1_655  T
C1786      C1787   1.421       .  S
C1787      C1788   1.211       .  T
C1789      C1790   1.211       .  T
C1790      C1791   1.422       .  S
C1791      C1792   1.211       .  T
C1793      C1794   1.212       .  T
C1794      C1795   1.422       .  S
C1795      C1796   1.212       .  T
C1797      C1798   1.211   1_545  T
C1798      C1799   1.420   1_455  S
C1799      C1800   1.211       .  T
C1801      C1802   1.206       .  T
C1802      C1803   1.413       .  S
C1803      C1804   1.206       .  T
C1805      C1806   1.211       .  T
C1806      C1807   1.421       .  S
C1807      C1808   1.211       .  T
C1809      C1810   1.206       .  T
C1810      C1811   1.413       .  S
C1811      C1812   1.206       .  T
C1813      C1814   1.206       .  T
C1814      C1815   1.413       .  S
C1815      C1816   1.206       .  T
C1817      C1818   1.206       .  T
C1818      C1819   1.412       .  S
C1819      C1820   1.206       .  T
C1821      C1822   1.211       .  T
C1822      C1823   1.421       .  S
C1823      C1824   1.211       .  T
C1825      C1826   1.206       .  T
C1826      C1827   1.412       .  S
C1827      C1828   1.206       .  T
C1829      C1830   1.211       .  T
C1830      C1831   1.421       .  S
C1831      C1832   1.211       .  T
C1833      C1834   1.206       .  T
C1834      C1835   1.413       .  S
C1835      C1836   1.206       .  T
C1837      C1838   1.211       .  T
C1838      C1839   1.421   1_556  S
C1839      C1840   1.211       .  T
C1841      C1842   1.212       .  T
C1842      C1843   1.422       .  S
C1843      C1844   1.212       .  T
C1845      C1846   1.212       .  T
C1846      C1847   1.422       .  S
C1847      C1848   1.212       .  T
C1849      C1850   1.211       .  T
C1850      C1851   1.421       .  S
C1851      C1852   1.211       .  T
C1853      C1854   1.206       .  T
C1854      C1855   1.412       .  S
C1855      C1856   1.206       .  T
C1857      C1858   1.211   1_545  T
C1858      C1859   1.421       .  S
C1859      C1860   1.211       .  T
C1861      C1862   1.206       .  T
C1862      C1863   1.413       .  S
C1863      C1864   1.206       .  T
C1865      C1866   1.212       .  T
C1866      C1867   1.423       .  S
C1867      C1868   1.212       .  T
C1869      C1870   1.211       .  T
C1870      C1871   1.420       .  S
C1871      C1872   1.211       .  T
C1873      C1874   1.206       .  T
C1874      C1875   1.412       .  S
C1875      C1876   1.206       .  T
C1877      C1878   1.206       .  T
C1878      C1879   1.412       .  S
C1879      C1880   1.206       .  T
C1881      C1882   1.207   1_545  T
C1882      C1883   1.425       .  S
C1883      C1884   1.208   1_556  T
C1885      C1886   1.206       .  T
C1886      C1887   1.413       .  S
C1887      C1888   1.206       .  T
C1889      C1890   1.212       .  T
C1890      C1891   1.422       .  S
C1891      C1892   1.212       .  T
C1893      C1894   1.206       .  T
C1894      C1895   1.413       .  S
C1895      C1896   1.206       .  T
C1897      C1898   1.211       .  T
C1898      C1899   1.422   1_565  S
C1899      C1900   1.211       .  T
C1901      C1902   1.211       .  T
C1902      C1903   1.420       .  S
C1903      C1904   1.211       .  T
C1905      C1906   1.212       .  T
C1906      C1907   1.422       .  S
C1907      C1908   1.212       .  T
C1909      C1910   1.211       .  T
C1910      C1911   1.421       .  S
C1911      C1912   1.211       .  T
C1913      C1914   1.205       .  T
C1914      C1915   1.412       .  S
C1915      C1916   1.205       .  T
C1917      C1918   1.212   1_655  T
C1918      C1919   1.422       .  S
C1919      C1920   1.212       .  T
C1921      C1922   1.206       .  T
C1922      C1923   1.412       .  S
C1923      C1924   1.206       .  T
C1925      C1926   1.212       .  T
C1926      C1927   1.422       .  S
C1927      C1928   1.212       .  T
C1929      C1930   1.211       .  T
C1930      C1931   1.421       .  S
C1931      C1932   1.211       .  T
C1933      C1934   1.206       .  T
C1934      C1935   1.414       .  S
C1935      C1936   1.207       .  T
C1937      C1938   1.206       .  T
C1938      C1939   1.413       .  S
C1939      C1940   1.206       .  T
C1941      C1942   1.211   1_545  T
C1942      C1943   1.420   1_655  S
C1943      C1944   1.211       .  T
C1945      C1946   1.206       .  T
C1946      C1947   1.413       .  S
C1947      C1948   1.206       .  T
C1949      C1950   1.212       .  T
C1950      C1951   1.422       .  S
C1951      C1952   1.211       .  T
C1953      C1954   1.206       .  T
C1954      C1955   1.413       .  S
C1955      C1956   1.206       .  T
C1957      C1958   1.211       .  T
C1958      C1959   1.420       .  S
C1959      C1960   1.211   1_556  T
C1961      C1962   1.211       .  T
C1962      C1963   1.421       .  S
C1963      C1964   1.211       .  T
C1965      C1966   1.212       .  T
C1966      C1967   1.422       .  S
C1967      C1968   1.212       .  T
C1969      C1970   1.211       .  T
C1970      C1971   1.421       .  S
C1971      C1972   1.211       .  T
C1973      C1974   1.206       .  T
C1974      C1975   1.414       .  S
C1975      C1976   1.206       .  T
C1977      C1978   1.210       .  T
C1978      C1979   1.420   1_655  S
C1979      C1980   1.211       .  T
C1981      C1982   1.212       .  T
C1982      C1983   1.422       .  S
C1983      C1984   1.212       .  T
C1985      C1986   1.205       .  T
C1986      C1987   1.412       .  S
C1987      C1988   1.205       .  T
C1989      C1990   1.211   1_655  T
C1990      C1991   1.421   1_556  S
C1991      C1992   1.211       .  T
C1993      C1994   1.206       .  T
C1994      C1995   1.412       .  S
C1995      C1996   1.206       .  T
C1997      C1998   1.206       .  T
C1998      C1999   1.413       .  S
C1999      C2000   1.206       .  T
C2001      C2002   1.211       .  T
C2002      C2003   1.421       .  S
C2003      C2004   1.211       .  T
C2005      C2006   1.206       .  T
C2006      C2007   1.412       .  S
C2007      C2008   1.206       .  T
C2009      C2010   1.212       .  T
C2010      C2011   1.422       .  S
C2011      C2012   1.212       .  T
C2013      C2014   1.205       .  T
C2014      C2015   1.412       .  S
C2015      C2016   1.205       .  T
