geometry optimzed in LAMMPS
_audit_creation_date              2020-12-01 
_audit_creation_method            'lammps2cif' 
_symmetry_space_group_name_H-M    'P1' 
_symmetry_Int_Tables_number       1 
_symmetry_cell_setting            triclinic 
loop_ 
_symmetry_equiv_pos_as_xyz 
  x,y,z 
_cell_length_a                    24.10972222 
_cell_length_b                    23.79296364831978 
_cell_length_c                    24.002848037272965 
_cell_angle_alpha                 88.25605598706056 
_cell_angle_beta                  90.17907657581671 
_cell_angle_gamma                 87.22324743009284 
loop_ 
_atom_site_label 
_atom_site_type_symbol 
_atom_site_fract_x 
_atom_site_fract_y 
_atom_site_fract_z 
_atom_site_charge 
C1          C  0.21305067  0.23156111  0.21413661     0.30600
C2          C  0.27956013  0.29679135  0.27458531     0.30600
C3          C  0.26865040  0.24728941  0.18464551    -0.05600
C4          C  0.18681701  0.28755488  0.23385409    -0.06400
C5          C  0.23608149  0.20320723  0.27051601    -0.06200
C6          C  0.30236338  0.27988033  0.21640963    -0.05600
C7          C  0.21946692  0.31895153  0.26463571    -0.06400
C8          C  0.26945015  0.23674554  0.30270445    -0.06200
C9          C  0.35307987  0.28259627  0.18879911    -0.31600
N10         N  0.35106062  0.25706108  0.13869096     0.14900
C11         C  0.30062815  0.23254427  0.13762624    -0.31600
H12         H  0.28927466  0.20353055  0.10628834     0.16800
C13         C  0.18680662  0.36510146  0.28155347    -0.29400
N14         N  0.13596438  0.36439406  0.25831305     0.13600
C15         C  0.13482580  0.31632748  0.22970377    -0.30600
C16         C  0.28204393  0.20405853  0.35178669    -0.30900
N17         N  0.25807658  0.15272788  0.35031368     0.14100
H18         H  0.30721895  0.21652060  0.38620697     0.16700
C19         C  0.23175150  0.15186096  0.29994434    -0.30900
H20         H  0.20983285  0.11621564  0.28597221     0.16700
H21         H  0.09886994  0.30377192  0.20706139     0.16700
H22         H  0.38958456  0.30113219  0.20500321     0.16800
H23         H  0.19862780  0.39767135  0.30868315     0.16700
N24         N  0.99167672  0.42713039  0.26055241    -0.36000
N25         N  0.90482591  0.51506857  0.26814939    -0.56600
N26         N  0.99093474  0.60098125  0.26843120    -0.36000
N27         N  0.07759428  0.51138620  0.27171224    -0.56600
C28         C  0.94722747  0.39605435  0.27210493     0.27600
C29         C  0.03775243  0.39431319  0.27267121     0.27600
C30         C  0.94402361  0.63273056  0.27974384     0.27600
C31         C  0.03602317  0.63055951  0.28202197     0.27600
C32         C  0.87456301  0.47119103  0.25276014     0.36200
C33         C  0.87343637  0.56289483  0.25625094     0.36200
C34         C  0.10772200  0.46571609  0.25408989     0.36200
C35         C  0.10860196  0.55659564  0.26084095     0.36200
C36         C  0.96532194  0.34325966  0.29262863    -0.21300
C37         C  0.02252710  0.34212746  0.29292299    -0.21300
C38         C  0.95955996  0.68336076  0.30078860    -0.21300
C39         C  0.01718574  0.68195074  0.30234833    -0.21300
C40         C  0.82421091  0.49153331  0.23043696    -0.22300
C41         C  0.82337982  0.54931354  0.23288446    -0.22300
C42         C  0.15741741  0.48220604  0.23157728    -0.22300
C43         C  0.15811090  0.53950059  0.23606361    -0.22300
C44         C  0.89116930  0.41300250  0.26059323    -0.17700
C45         C  0.09286769  0.40885935  0.26143102    -0.17700
C46         C  0.09339309  0.61313955  0.27363496    -0.17700
C47         C  0.88777750  0.61859448  0.26862674    -0.17700
H48         H  0.94003339  0.30891612  0.30563452     0.15200
H49         H  0.04973576  0.30667468  0.30611005     0.15200
H50         H  0.93221315  0.71795842  0.31360917     0.15200
H51         H  0.04225444  0.71519729  0.31666426     0.15200
H52         H  0.79178358  0.46754340  0.21306486     0.13500
H53         H  0.78993672  0.57807232  0.21829463     0.13500
H54         H  0.18962071  0.45585761  0.21296406     0.13500
H55         H  0.19079010  0.56559567  0.22114534     0.13500
H56         H  0.99100055  0.46600488  0.23915097     0.26800
H57         H  0.99186410  0.56327883  0.24721965     0.26800
C58         C  0.76523173  0.79605468  0.21870417     0.30600
C59         C  0.70410566  0.74193395  0.29705466     0.30600
C60         C  0.70636101  0.77914368  0.20083558    -0.05600
C61         C  0.79256885  0.74085745  0.24372169    -0.06400
C62         C  0.75346608  0.83047326  0.27225110    -0.06200
C63         C  0.67680390  0.74840249  0.23891138    -0.05600
C64         C  0.76175726  0.71187002  0.28301350    -0.06400
C65         C  0.72162890  0.80176442  0.31059286    -0.06200
C66         C  0.63329442  0.72651154  0.20902104    -0.31600
N67         N  0.63263502  0.74837951  0.15566681     0.14900
C68         C  0.67687227  0.78104983  0.15092212    -0.31600
H69         H  0.68726494  0.80392736  0.11313069     0.16800
C70         C  0.79392620  0.66248766  0.29615625    -0.30600
N71         N  0.84344648  0.66289237  0.26824400     0.13600
C72         C  0.84259767  0.71090249  0.23623164    -0.30600
C73         C  0.71851503  0.83167777  0.35903126    -0.30900
N74         N  0.74845880  0.87750721  0.35387044     0.14100
H75         H  0.69722055  0.82025877  0.39682810     0.16700
C76         C  0.77043025  0.87747978  0.30135293    -0.30900
H77         H  0.79779264  0.90906362  0.28755138     0.16700
H78         H  0.87553161  0.72258857  0.20825196     0.16700
H79         H  0.60527762  0.69554088  0.22426670     0.16800
H80         H  0.78191079  0.62803431  0.32324010     0.16700
N81         N  0.24982075  0.00337744  0.41102145    -0.36000
N82         N  0.25368570  0.08505549  0.49647647    -0.56600
N83         N  0.24053415  0.99202289  0.58419079    -0.36000
N84         N  0.24823943  0.91023053  0.49953057    -0.56600
C85         C  0.26491459  0.04935677  0.37992843     0.27600
C86         C  0.26242470  0.95641498  0.38164824     0.27600
C87         C  0.25763719  0.03593376  0.61303675     0.27600
C88         C  0.25511485  0.94449178  0.61470036     0.27600
C89         C  0.24593296  0.12113854  0.45139078     0.36200
C90         C  0.23843395  0.11369890  0.54265980     0.36200
C91         C  0.23723162  0.88201544  0.45287843     0.36200
C92         C  0.23471990  0.87637101  0.54377932     0.36200
C93         C  0.28749258  0.03088398  0.33030281    -0.21300
C94         C  0.28607168  0.97272900  0.33146512    -0.21300
C95         C  0.28502370  0.01615571  0.66095531    -0.21300
C96         C  0.28257480  0.95844283  0.66264739    -0.21300
C97         C  0.22552444  0.17287342  0.46926626    -0.22300
C98         C  0.22046582  0.16800086  0.52655387    -0.22300
C99         C  0.21594072  0.83048115  0.46782770    -0.22300
C100        C  0.21448371  0.82698513  0.52523685    -0.22300
C101        C  0.25716433  0.10752524  0.39450565    -0.17700
C102        C  0.25054769  0.89947810  0.39727165    -0.17700
C103        C  0.24325977  0.88899575  0.60056854    -0.17700
C104        C  0.24576887  0.09342511  0.59938025    -0.17700
H105        H  0.30393464  0.05651273  0.29681651     0.15200
H106        H  0.30114833  0.94546921  0.29898765     0.15200
H107        H  0.30660717  0.04085715  0.69024842     0.15200
H108        H  0.30069939  0.92994505  0.69439185     0.15200
H109        H  0.21419129  0.20997582  0.44380661     0.13500
H110        H  0.20494835  0.20070915  0.55339651     0.13500
H111        H  0.20281535  0.79846778  0.44026870     0.13500
H112        H  0.19980104  0.79236512  0.55045354     0.13500
H113        H  0.22721267  0.00380820  0.44796252     0.26800
H114        H  0.21536477  0.99508018  0.54861883     0.26800
N115        N  0.75490173  0.02188978  0.41099387    -0.36000
N116        N  0.74414273  0.10471967  0.49474107    -0.56600
N117        N  0.74941593  0.01072367  0.58542797    -0.36000
N118        N  0.74681558  0.92825622  0.50091400    -0.56600
C119        C  0.74168484  0.06896024  0.37880281     0.27600
C120        C  0.74206963  0.97669614  0.38131648     0.27600
C121        C  0.73638681  0.05766680  0.61473172     0.27600
C122        C  0.73808208  0.96428515  0.61802020     0.27600
C123        C  0.75618130  0.13911737  0.45022277     0.36200
C124        C  0.75483553  0.13330416  0.54133636     0.36200
C125        C  0.76052859  0.89926248  0.45443199     0.36200
C126        C  0.75510443  0.89222391  0.54615863     0.36200
C127        C  0.71995516  0.05326114  0.32851902    -0.21300
C128        C  0.71987743  0.99538393  0.33018237    -0.21300
C129        C  0.71691354  0.04077291  0.66668499    -0.21300
C130        C  0.71808354  0.98254426  0.66877155    -0.21300
C131        C  0.77467483  0.18934605  0.46865773    -0.22300
C132        C  0.77426391  0.18552227  0.52597523    -0.22300
C133        C  0.77814141  0.84474905  0.47071529    -0.22300
C134        C  0.77432788  0.84024034  0.52812137    -0.22300
C135        C  0.74983955  0.12568681  0.39314394    -0.17700
C136        C  0.75251621  0.91894334  0.39726462    -0.17700
C137        C  0.74566478  0.90592383  0.60345863    -0.17700
C138        C  0.74420835  0.11532935  0.59760988    -0.17700
H139        H  0.70469426  0.08058827  0.29441746     0.15200
H140        H  0.70446871  0.97016145  0.29730867     0.15200
H141        H  0.70264567  0.06759880  0.69984338     0.15200
H142        H  0.70454003  0.95681220  0.70358861     0.15200
H143        H  0.78840423  0.22454052  0.44358620     0.13500
H144        H  0.78779351  0.21746025  0.55329719     0.13500
H145        H  0.79247078  0.81139869  0.44388636     0.13500
H146        H  0.78582168  0.80321469  0.55361542     0.13500
H147        H  0.77643651  0.01993258  0.44885392     0.26800
H148        H  0.76945323  0.01108298  0.54703846     0.26800
C149        C  0.28453896  0.70908457  0.72316979     0.30600
C150        C  0.21988271  0.77764734  0.78912923     0.30600
C151        C  0.26703672  0.76768553  0.69708224    -0.05600
C152        C  0.22759851  0.68570842  0.74077894    -0.06400
C153        C  0.30955833  0.72204984  0.78063727    -0.06200
C154        C  0.23306265  0.80268454  0.72980332    -0.05600
C155        C  0.19390247  0.72096356  0.77280522    -0.06400
C156        C  0.27780521  0.75809203  0.81218063    -0.06200
C157        C  0.21698229  0.84869188  0.69490826    -0.31600
N158        N  0.24327110  0.84489248  0.64463736     0.14900
C159        C  0.27324476  0.79483231  0.64552325    -0.31600
H160        H  0.29801354  0.77924448  0.61125233     0.16800
C161        C  0.14401688  0.69361760  0.78048820    -0.30600
N162        N  0.14792514  0.64176934  0.75737175     0.13600
C163        C  0.19884432  0.63702475  0.73395646    -0.30600
C164        C  0.30742670  0.76653289  0.86089545    -0.30900
N165        N  0.35591860  0.73525177  0.86064283     0.14100
H166        H  0.29448169  0.79315838  0.89465776     0.16700
C167        C  0.35706005  0.70686222  0.81238565    -0.30900
H168        H  0.39031861  0.67716058  0.80196695     0.16700
H169        H  0.21322557  0.59960457  0.71423958     0.16700
H170        H  0.18645316  0.88162421  0.70400618     0.16800
H171        H  0.10758274  0.71026039  0.80181440     0.16700
N172        N  0.09241822  0.49569432  0.74711465    -0.36000
N173        N  0.00480371  0.58673619  0.75006726    -0.56600
N174        N  0.92078549  0.50295573  0.74070901    -0.36000
N175        N  0.00724904  0.41107350  0.74826729    -0.56600
C176        C  0.12179254  0.54040366  0.76270440     0.27600
C177        C  0.12414478  0.44747118  0.75816403     0.27600
C178        C  0.89005269  0.54976138  0.75463001     0.27600
C179        C  0.89058785  0.45796876  0.75445090     0.27600
C180        C  0.05003634  0.61746278  0.74104256     0.36200
C181        C  0.95978018  0.62042484  0.73514371     0.36200
C182        C  0.05314080  0.37665109  0.73943719     0.36200
C183        C  0.96168447  0.38122353  0.73733664     0.36200
C184        C  0.17241166  0.51979725  0.78458218    -0.21300
C185        C  0.17413486  0.46182140  0.78107978    -0.21300
C186        C  0.84093556  0.53413741  0.77886072    -0.21300
C187        C  0.84118070  0.47624545  0.77857535    -0.21300
C188        C  0.03353161  0.67038723  0.71943482    -0.22300
C189        C  0.97650171  0.67223747  0.71576236    -0.22300
C190        C  0.03628474  0.32470002  0.72311036    -0.22300
C191        C  0.97892415  0.32765635  0.72192300    -0.22300
C192        C  0.10569834  0.59932628  0.75461180    -0.17700
C193        C  0.10992136  0.39079538  0.74742238    -0.17700
C194        C  0.90475469  0.40105243  0.74296030    -0.17700
C195        C  0.90377792  0.60624338  0.74298811    -0.17700
H196        H  0.20504403  0.54387160  0.80160567     0.15200
H197        H  0.20813643  0.43339057  0.79492774     0.15200
H198        H  0.80843535  0.56170515  0.79535456     0.15200
H199        H  0.80867178  0.45041755  0.79444248     0.15200
H200        H  0.05969237  0.70417300  0.70695558     0.13500
H201        H  0.95042081  0.70774380  0.70054228     0.13500
H202        H  0.06236558  0.28844661  0.71224340     0.13500
H203        H  0.95285873  0.29432649  0.71028568     0.13500
H204        H  0.05493115  0.49820347  0.72526424     0.26800
H205        H  0.95713044  0.50205592  0.71747737     0.26800
C206        C  0.78518656  0.22949711  0.76983897     0.30600
C207        C  0.71898714  0.30148254  0.70338570     0.30600
C208        C  0.72908254  0.25052393  0.79805158    -0.05600
C209        C  0.80869880  0.28686945  0.75476282    -0.06400
C210        C  0.76392206  0.20624938  0.71544422    -0.06200
C211        C  0.69508275  0.28844698  0.76406895    -0.05600
C212        C  0.77780366  0.32242171  0.71934254    -0.06400
C213        C  0.73081864  0.24127412  0.68266790    -0.06200
C214        C  0.65010523  0.30475847  0.79801949    -0.31600
N215        N  0.65238221  0.27600141  0.84788417     0.14900
C216        C  0.70139644  0.24496301  0.84912044    -0.31600
H217        H  0.71502517  0.22031562  0.88509617     0.16800
C218        C  0.81086161  0.36897142  0.71040288    -0.30600
N219        N  0.85958077  0.36203851  0.74004629     0.13600
C220        C  0.85715751  0.31255942  0.76885021    -0.30600
C221        C  0.71691033  0.21055428  0.63636742    -0.30900
N222        N  0.74255157  0.15819470  0.64000650     0.14100
H223        H  0.69106375  0.22571977  0.60166410     0.16700
C224        C  0.77122653  0.15535836  0.68870451    -0.30900
H225        H  0.79696798  0.11923655  0.70307383     0.16700
H226        H  0.88903536  0.29555555  0.79735423     0.16700
H227        H  0.61769694  0.33590562  0.78885303     0.16800
H228        H  0.80095970  0.40464054  0.68291345     0.16700
N229        N  0.49223584  0.72822844  0.09500021    -0.36000
N230        N  0.41045346  0.73065460  0.00719072    -0.56600
N231        N  0.50070517  0.73189333  0.92097099    -0.36000
N232        N  0.58149369  0.74327607  0.00839114    -0.56600
C233        C  0.44487308  0.74036037  0.12372091     0.27600
C234        C  0.53470941  0.74827711  0.12434784     0.27600
C235        C  0.45437783  0.74303147  0.88926971     0.27600
C236        C  0.54572739  0.74622335  0.89005358     0.27600
C237        C  0.37718012  0.71831851  0.05131550     0.36200
C238        C  0.38114834  0.72114491  0.96031202     0.36200
C239        C  0.61038036  0.73032928  0.05623015     0.36200
C240        C  0.61633962  0.73145910  0.96506592     0.36200
C241        C  0.45745673  0.76887872  0.17112210    -0.21300
C242        C  0.51403330  0.77423877  0.17125247    -0.21300
C243        C  0.47021784  0.76456511  0.83773474    -0.21300
C244        C  0.52736089  0.76649384  0.83813242    -0.21300
C245        C  0.32691181  0.70068138  0.03231878    -0.22300
C246        C  0.32945278  0.70237484  0.97496560    -0.22300
C247        C  0.66278898  0.70931778  0.04325912    -0.22300
C248        C  0.66686272  0.71013110  0.98576958    -0.22300
C249        C  0.39051000  0.72647058  0.10830609    -0.17700
C250        C  0.59184700  0.74092373  0.11158629    -0.17700
C251        C  0.60290625  0.74011819  0.90718406    -0.17700
C252        C  0.39827244  0.73250194  0.90433280    -0.17700
H253        H  0.42860409  0.78631991  0.20107620     0.15200
H254        H  0.53710682  0.79652795  0.20137849     0.15200
H255        H  0.44333044  0.77863973  0.80353050     0.15200
H256        H  0.55216975  0.78237019  0.80420752     0.15200
H257        H  0.29196664  0.68805036  0.05709903     0.13500
H258        H  0.29685440  0.69085760  0.94712271     0.13500
H259        H  0.69367642  0.69349277  0.07311229     0.13500
H260        H  0.70213422  0.69490614  0.96186761     0.13500
H261        H  0.49621544  0.70324835  0.06010139     0.26800
H262        H  0.50154620  0.71116522  0.95972602     0.26800
N263        N  0.49661426  0.26478018  0.07859723    -0.36000
N264        N  0.58753579  0.26794711  0.99055498    -0.56600
N265        N  0.50574640  0.27782194  0.90476590    -0.36000
N266        N  0.41489234  0.26199775  0.99300039    -0.56600
C267        C  0.54355937  0.25215719  0.10873800     0.27600
C268        C  0.45213864  0.25000463  0.11019738     0.27600
C269        C  0.55250304  0.26529180  0.87462180     0.27600
C270        C  0.46169489  0.26107179  0.87533701     0.27600
C271        C  0.61582078  0.27801787  0.03768658     0.36200
C272        C  0.62098248  0.28221268  0.94720066     0.36200
C273        C  0.38004134  0.26941804  0.03735849     0.36200
C274        C  0.38553594  0.27650850  0.94582256     0.36200
C275        C  0.52883711  0.22910702  0.16008059    -0.21300
C276        C  0.47155952  0.22761659  0.16094725    -0.21300
C277        C  0.53782519  0.24006345  0.82603142    -0.21300
C278        C  0.48083889  0.23720636  0.82645806    -0.21300
C279        C  0.66678836  0.29926346  0.02385169    -0.22300
C280        C  0.67022299  0.30142455  0.96675027    -0.22300
C281        C  0.32848563  0.28935895  0.01799769    -0.22300
C282        C  0.33175052  0.29347660  0.96051574    -0.22300
C283        C  0.59907455  0.26448896  0.09311748    -0.17700
C284        C  0.39459028  0.25793737  0.09488589    -0.17700
C285        C  0.40449467  0.26918512  0.88958464    -0.17700
C286        C  0.60813357  0.27568351  0.89021742    -0.17700
H287        H  0.55656578  0.21465839  0.19358671     0.15200
H288        H  0.44718870  0.21134805  0.19504151     0.15200
H289        H  0.56548725  0.22326882  0.79465628     0.15200
H290        H  0.45654033  0.21836038  0.79467550     0.15200
H291        H  0.69843600  0.31220590  0.05192267     0.13500
H292        H  0.70473975  0.31601727  0.94249264     0.13500
H293        H  0.29273712  0.30141616  0.04264783     0.13500
H294        H  0.29821068  0.30768141  0.93266195     0.13500
H295        H  0.49551398  0.28761014  0.04096246     0.26800
H296        H  0.50308938  0.30086688  0.94095497     0.26800
C297        C  0.71578873  0.71940241  0.72444691     0.30600
C298        C  0.78018180  0.78295013  0.78808268     0.30600
C299        C  0.69334736  0.73187952  0.78333632    -0.05600
C300        C  0.77607604  0.69625441  0.73457638    -0.06400
C301        C  0.72600983  0.77969262  0.69807800    -0.06200
C302        C  0.72542611  0.76407141  0.81623441    -0.05600
C303        C  0.80828474  0.72769743  0.76695193    -0.06400
C304        C  0.75931764  0.81231190  0.73112150    -0.06200
C305        C  0.69601390  0.77029058  0.86647354    -0.31600
N306        N  0.64746697  0.74219573  0.86478475     0.14900
C307        C  0.64654262  0.71825439  0.81382006    -0.31600
H308        H  0.61367904  0.69288347  0.79926704     0.16800
C309        C  0.86024650  0.69918169  0.77081221    -0.30600
N310        N  0.85975596  0.65061528  0.74284548     0.13600
C311        C  0.80872527  0.64925038  0.71910120    -0.30600
C312        C  0.77005991  0.86066091  0.69852451    -0.30900
N313        N  0.74407547  0.86056876  0.64787035     0.14100
H314        H  0.79715549  0.89299083  0.70912760     0.16700
C315        C  0.71795022  0.81049772  0.64714874    -0.30900
H316        H  0.69588140  0.79685610  0.61142551     0.16700
H317        H  0.79635486  0.61599128  0.69275029     0.16700
H318        H  0.70834153  0.79519448  0.90089472     0.16800
H319        H  0.89641723  0.71206541  0.79213374     0.16700
C320        C  0.70953605  0.30798750  0.26794503     0.30600
C321        C  0.78031357  0.24091343  0.20661417     0.30600
C322        C  0.68858786  0.29088338  0.21082716    -0.05600
C323        C  0.76789531  0.32998759  0.25685781    -0.06400
C324        C  0.72687315  0.24923561  0.29685047    -0.06200
C325        C  0.72253222  0.25538111  0.18174354    -0.05600
C326        C  0.80340948  0.29705317  0.22519952    -0.06400
C327        C  0.76322077  0.21426701  0.26493291    -0.06200
C328        C  0.69208600  0.23819951  0.13651210    -0.31600
N329        N  0.64110643  0.26511066  0.13638009     0.14900
C330        C  0.63872391  0.29777380  0.18147183    -0.31600
H331        H  0.60281698  0.32419939  0.19211064     0.16800
C332        C  0.85462858  0.32185325  0.22653092    -0.30600
N333        N  0.85011797  0.37010738  0.25598331     0.13600
C334        C  0.79824371  0.37290470  0.27764347    -0.30600
C335        C  0.77619416  0.16632782  0.29858592    -0.30900
N336        N  0.74974233  0.17006519  0.34874169     0.14100
H337        H  0.80407938  0.13127197  0.28871151     0.16700
C338        C  0.72148308  0.22130652  0.34853580    -0.30900
H339        H  0.70051527  0.23769625  0.38451164     0.16700
H340        H  0.78315769  0.40473756  0.30591889     0.16700
H341        H  0.70618745  0.20878872  0.10546188     0.16800
H342        H  0.89260138  0.30557388  0.20780102     0.16700
C343        C  0.29095744  0.26862094  0.70496759     0.30600
C344        C  0.23613064  0.20641580  0.78209234     0.30600
C345        C  0.32007103  0.26026441  0.76235153    -0.05600
C346        C  0.23379984  0.29643719  0.72382188    -0.06400
C347        C  0.27540762  0.20874935  0.68897577    -0.06200
C348        C  0.29258906  0.22780996  0.79995260    -0.05600
C349        C  0.20480197  0.26385193  0.76310203    -0.06400
C350        C  0.24513894  0.17821558  0.72582646    -0.06200
C351        C  0.32003389  0.22924247  0.85064142    -0.31600
N352        N  0.36341916  0.26277323  0.84577780     0.14900
C353        C  0.36296093  0.28361190  0.79200855    -0.31600
H354        H  0.39176643  0.31332402  0.77548473     0.16800
C355        C  0.15554925  0.29510198  0.77433620    -0.30600
N356        N  0.15455637  0.34601597  0.74617552     0.13600
C357        C  0.20295436  0.34748813  0.71659869    -0.30600
C358        C  0.22641469  0.13278150  0.69614004    -0.30900
N359        N  0.24909595  0.13354245  0.64388443     0.14100
H360        H  0.19785558  0.10213582  0.71113394     0.16700
C361        C  0.28018172  0.17872256  0.64045028    -0.30900
H362        H  0.30423625  0.18863286  0.60407418     0.16700
H363        H  0.21520819  0.38368848  0.69231349     0.16700
H364        H  0.30876512  0.20778706  0.88902227     0.16800
H365        H  0.12219504  0.28194676  0.80092371     0.16700
C366        C  0.28134035  0.71249494  0.29660934     0.30600
C367        C  0.21808662  0.77953046  0.22419482     0.30600
C368        C  0.30531949  0.71885553  0.23585009    -0.05600
C369        C  0.22173213  0.69192318  0.28328357    -0.06400
C370        C  0.27000579  0.77447295  0.31291597    -0.06200
C371        C  0.27251942  0.75412803  0.20012235    -0.05600
C372        C  0.18900309  0.72719743  0.24861206    -0.06400
C373        C  0.23652774  0.80798832  0.27796699    -0.06200
C374        C  0.29898509  0.75871253  0.14915860    -0.31600
N375        N  0.34707432  0.72658242  0.15098247     0.14900
C376        C  0.35033531  0.70081621  0.20283791    -0.31600
H377        H  0.38335752  0.67101622  0.21493150     0.16800
C378        C  0.13679973  0.70399509  0.24607801    -0.30600
N379        N  0.13742655  0.65389400  0.27460918     0.13600
C380        C  0.18958863  0.64591250  0.29698463    -0.30600
C381        C  0.22507688  0.85798045  0.30593644    -0.30900
N382        N  0.25350444  0.85668560  0.35493707     0.14100
H383        H  0.19599267  0.89195287  0.29358780     0.16700
C384        C  0.28106410  0.80560743  0.35948951    -0.30900
H385        H  0.30552790  0.79115163  0.39546712     0.16700
H386        H  0.20355509  0.60893429  0.32149455     0.16700
H387        H  0.28504650  0.78524771  0.11392294     0.16800
H388        H  0.10049539  0.72134654  0.22470959     0.16700
C389        C  0.02599745  0.90321223  0.19199696     0.43100
N390        N  0.99239405  0.92308649  0.11170674     0.02000
C391        C  0.12217091  0.07879558  0.92296572    -0.05900
H392        H  0.98333369  0.20249846  0.04429432     0.07500
C393        C  0.84197766  0.06752641  0.98814594    -0.06300
Co394      Co  0.06905416  0.00694850  0.06710079     0.74200
N395        N  0.00816251  0.11444885  0.04476933    -0.25400
Co396      Co  0.00472520  0.08807052  0.96328424     0.74100
C397        C  0.84792952  0.12450664  0.00941600     0.43200
N398        N  0.88342345  0.93287012  0.99187309     0.01600
N399        N  0.92063637  0.09934109  0.96416393     0.01700
N400        N  0.16812240  0.05150250  0.00241107    -0.46300
H401        H  0.05598300  0.99278342  0.19964820     0.07400
N402        N  0.02757971  0.07988790  0.08437221     0.02000
N403        N  0.00047860  0.06262477  0.88402948     0.01700
C404        C  0.97522517  0.07339144  0.79927471     0.43300
N405        N  0.91285322  0.89982454  0.02647596    -0.24900
C406        C  0.16053609  0.91800577  0.02656437    -0.05800
N407        N  0.98833186  0.88811772  0.15473048    -0.46000
N408        N  0.00615368  0.09518823  0.83939303    -0.46200
C409        C  0.15800531  0.86138902  0.00384296     0.43100
N410        N  0.11380759  0.04832624  0.00734125     0.02000
N411        N  0.99452586  0.87211888  0.94899633    -0.24900
N412        N  0.01998476  0.96707210  0.12467720    -0.25400
N413        N  0.97289790  0.90887046  0.91258382     0.01600
H414        H  0.02514605  0.78657874  0.94011633     0.07500
H415        H  0.93478494  0.98989610  0.80072360     0.07500
N416        N  0.08695607  0.06920018  0.96335916    -0.25500
N417        N  0.88948274  0.05560883  0.96042040    -0.25100
N418        N  0.07857507  0.88819288  0.03569187     0.02000
C419        C  0.01261531  0.15703697  0.12630690     0.43400
C420        C  0.88464607  0.85630588  0.04131023    -0.06300
N421        N  0.97269807  0.01856314  0.87358918    -0.25100
H422        H  0.81121498  0.03750567  0.99876917     0.07500
N423        N  0.02736929  0.10218603  0.13346584    -0.46300
H424        H  0.90056795  0.82163270  0.06789555     0.07500
C425        C  0.98597080  0.83576774  0.86376513     0.43200
C426        C  0.03060012  0.96347763  0.17901802    -0.05800
Co427      Co  0.99471953  0.89515714  0.03160448     0.73800
N428        N  0.83224499  0.91544843  0.98609506    -0.46000
C429        C  0.17558233  0.07324927  0.95057191     0.43500
N430        N  0.10629419  0.84585943  0.01366321    -0.46000
Co431      Co  0.92759420  0.97934709  0.93401901     0.73900
C432        C  0.96435510  0.01662161  0.81887186    -0.06300
C433        C  0.99540836  0.16412876  0.06747948    -0.05900
N434        N  0.10897841  0.93107186  0.04520996    -0.25400
N435        N  0.89678508  0.14119640  0.99075234    -0.46200
H436        H  0.11141564  0.10011337  0.88367040     0.07500
C437        C  0.00706728  0.82496129  0.92146041    -0.06300
Cl438      Cl  0.99850471  0.99245246  0.99929714    -0.49300
C439        C  0.83058839  0.86625460  0.01612887     0.43200
H440        H  0.19346533  0.94692172  0.02195973     0.07400
N441        N  0.97563251  0.89165741  0.86156165    -0.46000
C442        C  0.54517252  0.48979080  0.29025648     0.43100
N443        N  0.54538860  0.51401526  0.37531507     0.02000
C444        C  0.42301629  0.36027415  0.57769769    -0.05900
H445        H  0.28767608  0.51441026  0.47163479     0.07500
C446        C  0.41862492  0.65270515  0.53864023    -0.06300
Co447      Co  0.47847268  0.42906498  0.43136542     0.74200
N448        N  0.37266312  0.48331562  0.46580875    -0.25400
Co449      Co  0.40918595  0.48209944  0.54455154     0.74100
C450        C  0.36161179  0.64719211  0.51817250     0.43200
N451        N  0.54686195  0.61765603  0.50519315     0.01600
N452        N  0.39446125  0.56735451  0.54978006     0.01700
N453        N  0.45160431  0.32102040  0.49742373    -0.46300
H454        H  0.46374248  0.44713294  0.30051705     0.07400
N455        N  0.40219023  0.46633717  0.42337669     0.02000
N456        N  0.44473310  0.48103664  0.62198925     0.01700
C457        C  0.42705446  0.51956728  0.69990475     0.43300
N458        N  0.56586986  0.59704100  0.45832311    -0.24900
C459        C  0.58027705  0.34553404  0.46179055    -0.05800
N460        N  0.57056753  0.52179566  0.32738024    -0.46000
N461        N  0.41278359  0.47853723  0.66626917    -0.46200
C462        C  0.63745557  0.35389137  0.48091042     0.43100
N463        N  0.45072731  0.37669129  0.49423473     0.02000
N464        N  0.62141429  0.51536028  0.53012108    -0.24900
N465        N  0.50189147  0.48384665  0.36954785    -0.25400
N466        N  0.58919276  0.52099874  0.57364546     0.01600
H467        H  0.70965007  0.52260568  0.52164759     0.07500
H468        H  0.51080606  0.56140304  0.69710670     0.07500
N469        N  0.43007020  0.39950899  0.53911330    -0.25500
N470        N  0.43595913  0.60060202  0.55539338    -0.25100
N471        N  0.60076580  0.43102354  0.44632799     0.02000
C472        C  0.32304272  0.48810789  0.38623386     0.43400
C473        C  0.59283204  0.63508635  0.42998362    -0.06300
N474        N  0.48656084  0.51285800  0.62997107    -0.25100
H475        H  0.44583187  0.68668262  0.52991646     0.07500
N476        N  0.37616105  0.47317702  0.37567984    -0.46300
H477        H  0.62007555  0.62575388  0.39544944     0.07500
C478        C  0.66940619  0.52587460  0.60890710     0.43200
C479        C  0.49254125  0.47675132  0.31563192    -0.05800
Co480      Co  0.58420797  0.51502177  0.45151538     0.73800
N481        N  0.56256659  0.66965718  0.51219785    -0.46000
C482        C  0.43427084  0.30789811  0.54948190     0.43500
N483        N  0.64728401  0.40711875  0.46585447    -0.46000
Co484      Co  0.51512410  0.56403711  0.56662901     0.73900
C485        C  0.48423029  0.52974434  0.68232399    -0.06300
C486        C  0.32196136  0.49942520  0.44638892    -0.05900
N487        N  0.56030735  0.39619742  0.44277730    -0.25400
N488        N  0.34924309  0.59392724  0.53046970    -0.46200
H489        H  0.40261118  0.36745217  0.61708123     0.07500
C490        C  0.67396357  0.51775502  0.54821985    -0.06300
Cl491      Cl  0.49651944  0.49776418  0.49844635    -0.49300
C492        C  0.59268370  0.68191493  0.46656234     0.43200
H493        H  0.55530994  0.31009128  0.47145950     0.07400
N494        N  0.61604662  0.52020905  0.62079462    -0.46000
C495        C  0.12989815  0.89926317  0.19816675    -0.05200
C496        C  0.08071712  0.87043916  0.18836826     0.00800
C497        C  0.08676056  0.81657169  0.16236940    -0.07800
C498        C  0.14070961  0.79265575  0.15624021    -0.05200
C499        C  0.18536602  0.81644052  0.18192801     0.00800
C500        C  0.18213739  0.87454070  0.18815039    -0.07700
C501        C  0.23265452  0.91028208  0.18276459     0.62700
H502        H  0.12872315  0.94171236  0.21247044     0.13400
H503        H  0.14723336  0.75051990  0.14097375     0.13400
C504        C  0.03849612  0.78178707  0.14368531     0.62900
F505        F  0.23740551  0.92859849  0.12794290    -0.22300
F506        F  0.28132851  0.88043736  0.19765301    -0.19600
F507        F  0.22718101  0.95709166  0.21552609    -0.19300
F508        F  0.01475520  0.80455605  0.09506945    -0.19300
F509        F  0.99893584  0.77930980  0.18522798    -0.19600
F510        F  0.05553832  0.72691339  0.13236557    -0.22300
C511        C  0.27127883  0.67451185  0.39299193    -0.05200
C512        C  0.30948780  0.68372896  0.34880472     0.00800
C513        C  0.36654288  0.68858474  0.36505529    -0.07800
C514        C  0.38191158  0.67682772  0.42099981    -0.05200
C515        C  0.34278889  0.66813567  0.46287573     0.00800
C516        C  0.28638900  0.66813875  0.44892905    -0.07700
C517        C  0.24171404  0.66238286  0.49332721     0.62700
H518        H  0.22742160  0.67891625  0.38546081     0.13400
H519        H  0.42544774  0.67406400  0.43231312     0.13400
C520        C  0.41271447  0.70747976  0.32705267     0.62900
F521        F  0.18931741  0.67843637  0.47303623    -0.22300
F522        F  0.25264045  0.69610453  0.53757300    -0.19600
F523        F  0.24055317  0.60709995  0.51242547    -0.19300
F524        F  0.39512615  0.75299402  0.29371301    -0.19300
F525        F  0.43188382  0.66289865  0.29583156    -0.19600
F526        F  0.45748787  0.72492730  0.35727361    -0.22300
C527        C  0.38183770  0.25768665  0.66115256    -0.05200
C528        C  0.32812457  0.28564876  0.65646913     0.00800
C529        C  0.30632729  0.29493727  0.60067583    -0.07800
C530        C  0.34121623  0.28096155  0.55505954    -0.05200
C531        C  0.39713435  0.26366563  0.56348604     0.00800
C532        C  0.41178659  0.23989041  0.61509610    -0.07700
C533        C  0.46162431  0.19950375  0.62284173     0.62700
H534        H  0.39802411  0.24097465  0.70046235     0.13400
H535        H  0.32800711  0.29066176  0.51265653     0.13400
C536        C  0.24628831  0.31409598  0.58768730     0.62900
F537        F  0.44343663  0.14704400  0.63828893    -0.22300
F538        F  0.49584078  0.21746381  0.66437469    -0.19600
F539        F  0.49186389  0.19479922  0.57415092    -0.19300
F540        F  0.23852556  0.37072913  0.59771981    -0.19300
F541        F  0.20872156  0.28382059  0.61776304    -0.19600
F542        F  0.23324881  0.30599172  0.53273107    -0.22300
C543        C  0.18999983  0.19425413  0.87241112    -0.05200
C544        C  0.22140761  0.16805581  0.83080916     0.00800
C545        C  0.25664833  0.11885181  0.84714879    -0.07800
C546        C  0.25373560  0.09735287  0.90195177    -0.05200
C547        C  0.21292913  0.11737635  0.93716825     0.00800
C548        C  0.18737620  0.17120051  0.92602042    -0.07700
C549        C  0.14656328  0.19879403  0.96529255     0.62700
H550        H  0.16916084  0.23460222  0.86481416     0.13400
H551        H  0.27473358  0.05738688  0.91374469     0.13400
C552        C  0.29518893  0.08503836  0.80892697     0.62900
F553        F  0.15798016  0.25487419  0.96856073    -0.22300
F554        F  0.15000708  0.17316224  0.01770402    -0.19600
F555        F  0.09298188  0.19563351  0.94517990    -0.19300
F556        F  0.33163761  0.04843344  0.83860725    -0.19300
F557        F  0.32803614  0.11837599  0.77616793    -0.19600
F558        F  0.26292564  0.05258076  0.77664928    -0.22300
C559        C  0.82375367  0.15455428  0.16253881    -0.05200
C560        C  0.81301630  0.21295460  0.15931808     0.00800
C561        C  0.81707796  0.24120797  0.10533582    -0.07800
C562        C  0.82126095  0.20813823  0.05811408    -0.05200
C563        C  0.82831464  0.14966922  0.06158311     0.00800
C564        C  0.83378760  0.12266832  0.11482612    -0.07700
C565        C  0.84964223  0.06066723  0.12200777     0.62700
H566        H  0.82197178  0.13307714  0.20222048     0.13400
H567        H  0.82250091  0.22807108  0.01695565     0.13400
C568        C  0.81748329  0.30533138  0.09464773     0.62900
F569        F  0.85962338  0.04545848  0.17739173    -0.22300
F570        F  0.89761140  0.04729974  0.09286668    -0.19600
F571        F  0.80666750  0.03014933  0.10279082    -0.19300
F572        F  0.86762268  0.32450235  0.11180124    -0.19300
F573        F  0.77478028  0.33449659  0.12087663    -0.19600
F574        F  0.81221793  0.31996780  0.03848513    -0.22300
C575        C  0.56960447  0.38624164  0.29455607    -0.05200
C576        C  0.58052776  0.44080985  0.27317488     0.00800
C577        C  0.63320812  0.45046573  0.25234570    -0.07800
C578        C  0.67452612  0.40806382  0.25923825    -0.05200
C579        C  0.66654236  0.35409093  0.28514596     0.00800
C580        C  0.61082907  0.34246160  0.30019284    -0.07700
C581        C  0.59247671  0.28455914  0.31984869     0.62700
H582        H  0.52878564  0.37802349  0.30996796     0.13400
H583        H  0.71209979  0.41692211  0.23757710     0.13400
C584        C  0.64827331  0.50581524  0.22387733     0.62900
F585        F  0.61200310  0.27262932  0.37289825    -0.22300
F586        F  0.61103221  0.24272942  0.28494438    -0.19600
F587        F  0.53518745  0.28236259  0.32168431    -0.19300
F588        F  0.68368324  0.53322859  0.25815210    -0.19300
F589        F  0.60239764  0.54135400  0.21170696    -0.19600
F590        F  0.67493542  0.49513254  0.17408955    -0.22300
C591        C  0.69062445  0.61979190  0.72556795    -0.05200
C592        C  0.68454326  0.67317024  0.69843468     0.00800
C593        C  0.66124374  0.67650592  0.64516924    -0.07800
C594        C  0.66757634  0.62851069  0.61271301    -0.05200
C595        C  0.68669822  0.57585003  0.63652494     0.00800
C596        C  0.69347400  0.57094837  0.69494980    -0.07700
C597        C  0.70414932  0.51397888  0.72411857     0.62700
H598        H  0.70147997  0.61714179  0.76942045     0.13400
H599        H  0.64864289  0.62978639  0.57180298     0.13400
C600        C  0.61328322  0.71846249  0.63224629     0.62900
F601        F  0.71614430  0.51854493  0.78009471    -0.22300
F602        F  0.74856838  0.48699590  0.69868641    -0.19600
F603        F  0.65832612  0.48155325  0.72010551    -0.19300
F604        F  0.61932236  0.74521247  0.58106527    -0.19300
F605        F  0.60762172  0.75866904  0.67253012    -0.19600
F606        F  0.56473821  0.68976108  0.63128237    -0.22300
C607        C  0.84685937  0.77481441  0.86799549    -0.05200
C608        C  0.82116351  0.81024270  0.82586185     0.00800
C609        C  0.85270715  0.85173931  0.80166470    -0.07800
C610        C  0.90958302  0.83949241  0.79716948    -0.05200
C611        C  0.93720089  0.80787475  0.84094048     0.00800
C612        C  0.90528295  0.77249307  0.87558248    -0.07700
C613        C  0.93331538  0.72272380  0.90762943     0.62700
H614        H  0.82317540  0.74152502  0.88622435     0.13400
H615        H  0.93306092  0.86896153  0.77250173     0.13400
C616        C  0.83373536  0.91278985  0.80823405     0.62900
F617        F  0.89984168  0.67705398  0.90958356    -0.22300
F618        F  0.94484651  0.73689880  0.96155542    -0.19600
F619        F  0.98242887  0.70584095  0.88187306    -0.19300
F620        F  0.85409622  0.93152734  0.85794983    -0.19300
F621        F  0.77637369  0.91913829  0.80926067    -0.19600
F622        F  0.85344573  0.94597001  0.76505434    -0.22300
C623        C  0.87747381  0.10127951  0.82148469    -0.05200
C624        C  0.92436767  0.10775125  0.78697545     0.00800
C625        C  0.92505332  0.15203735  0.74829181    -0.07800
C626        C  0.88016813  0.19084886  0.74776416    -0.05200
C627        C  0.83412617  0.18837977  0.78578203     0.00800
C628        C  0.83114872  0.13890132  0.81960679    -0.07700
C629        C  0.78068159  0.12291247  0.85269403     0.62700
H630        H  0.87706927  0.06636572  0.85114085     0.13400
H631        H  0.87940524  0.22198158  0.71404572     0.13400
C632        C  0.97242188  0.15658015  0.70690913     0.62900
F633        F  0.78212918  0.06577245  0.86591677    -0.22300
F634        F  0.73256179  0.13451585  0.82237251    -0.19600
F635        F  0.77992417  0.15115326  0.90201970    -0.19300
F636        F  0.97864543  0.10703845  0.67836165    -0.19300
F637        F  0.02136162  0.16546770  0.73485918    -0.19600
F638        F  0.96290551  0.20018050  0.66812066    -0.22300
C639        C  0.72879670  0.34368075  0.60786389    -0.05200
C640        C  0.69102374  0.33317315  0.65216185     0.00800
C641        C  0.63417048  0.32814628  0.63607439    -0.07800
C642        C  0.61963760  0.32917480  0.57921262    -0.05200
C643        C  0.65844227  0.33639336  0.53680177     0.00800
C644        C  0.71415755  0.34394980  0.55134323    -0.07700
C645        C  0.75988946  0.35301866  0.50865019     0.62700
H646        H  0.77264503  0.34460250  0.61597122     0.13400
H647        H  0.57656630  0.32679934  0.56741954     0.13400
C648        C  0.58725551  0.32519340  0.67715769     0.62900
F649        F  0.80614095  0.31848117  0.52187678    -0.22300
F650        F  0.77472199  0.40839873  0.50965488    -0.19600
F651        F  0.74426096  0.34114621  0.45491565    -0.19300
F652        F  0.58702697  0.37255941  0.70891741    -0.19300
F653        F  0.59326742  0.27598230  0.70869886    -0.19600
F654        F  0.53558570  0.32529132  0.65184125    -0.22300
C655        C  0.19947797  0.88012550  0.91069079    -0.05200
C656        C  0.18237731  0.84156087  0.95146180     0.00800
C657        C  0.17352746  0.78610346  0.93650121    -0.07800
C658        C  0.17336274  0.77347903  0.88034393    -0.05200
C659        C  0.19264207  0.81010748  0.83760044     0.00800
C660        C  0.20933425  0.86444322  0.85503450    -0.07700
C661        C  0.23983949  0.90603587  0.81834989     0.62700
H662        H  0.20518094  0.92293552  0.92273659     0.13400
H663        H  0.16645571  0.73024182  0.87255274     0.13400
C664        C  0.16274031  0.73893908  0.97896058     0.62900
F665        F  0.26187526  0.94790849  0.84924794    -0.22300
F666        F  0.20334698  0.93221444  0.78048005    -0.19600
F667        F  0.28402133  0.87982397  0.79150734    -0.19300
F668        F  0.10663651  0.72964285  0.98036354    -0.19300
F669        F  0.18054914  0.75129940  0.03185722    -0.19600
F670        F  0.19095878  0.68961564  0.96425267    -0.22300
C671        C  0.30367842  0.62319851  0.66684786    -0.05200
C672        C  0.32341708  0.67259560  0.68741242     0.00800
C673        C  0.38107343  0.67454808  0.69489933    -0.07800
C674        C  0.41104871  0.62376946  0.70680797    -0.05200
C675        C  0.38796058  0.57094020  0.69895516     0.00800
C676        C  0.33228142  0.57099620  0.67701069    -0.07700
C677        C  0.30104036  0.51780201  0.66600691     0.62700
H678        H  0.26360795  0.62564312  0.64645427     0.13400
H679        H  0.45333132  0.62616704  0.72070001     0.13400
C680        C  0.41113329  0.72914134  0.68708935     0.62900
F681        F  0.24485187  0.52919072  0.65730923    -0.22300
F682        F  0.30657672  0.48068519  0.71144157    -0.19600
F683        F  0.32033671  0.49223990  0.61845638    -0.19300
F684        F  0.46557382  0.72303967  0.70569102    -0.19300
F685        F  0.38565751  0.77330704  0.71469014    -0.19600
F686        F  0.41164507  0.74363165  0.63096218    -0.22300
C687        C  0.70141265  0.70213847  0.39236209    -0.05200
C688        C  0.66917000  0.72492391  0.34723810     0.00800
C689        C  0.61823704  0.75685156  0.36095748    -0.07800
C690        C  0.60423117  0.76286783  0.41758944    -0.05200
C691        C  0.62989055  0.72760878  0.45776380     0.00800
C692        C  0.68514396  0.70927131  0.44742203    -0.07700
C693        C  0.72571107  0.69116477  0.49317740     0.62700
H694        H  0.74287561  0.68506507  0.38610601     0.13400
H695        H  0.56518185  0.78370464  0.42919017     0.13400
C696        C  0.57711250  0.78407288  0.31871825     0.62900
F697        F  0.77880415  0.70567888  0.47874896    -0.22300
F698        F  0.72582704  0.63351022  0.50152259    -0.19600
F699        F  0.71248944  0.71753224  0.54185699    -0.19300
F700        F  0.55159857  0.74213381  0.29142102    -0.19300
F701        F  0.60241188  0.81987470  0.28157044    -0.19600
F702        F  0.53536423  0.81631394  0.34374101    -0.22300
C703        C  0.79703072  0.77576349  0.12380473    -0.05200
C704        C  0.79402505  0.81588343  0.16618836     0.00800
C705        C  0.79331874  0.87302194  0.15009717    -0.07800
C706        C  0.77710660  0.88879822  0.09542619    -0.05200
C707        C  0.78658040  0.84980946  0.05336435     0.00800
C708        C  0.79017496  0.79162284  0.06779898    -0.07700
C709        C  0.80304861  0.74780788  0.02465321     0.62700
H710        H  0.79833285  0.73122676  0.13461045     0.13400
H711        H  0.77728487  0.93307971  0.08357929     0.13400
C712        C  0.83019718  0.91204023  0.17962881     0.62900
F713        F  0.77974703  0.76516157  0.97413044    -0.22300
F714        F  0.78337778  0.69618024  0.04009886    -0.19600
F715        F  0.85957177  0.74029686  0.01894900    -0.19300
F716        F  0.86080636  0.88384231  0.22163898    -0.19300
F717        F  0.79826907  0.95629987  0.20043863    -0.19600
F718        F  0.86826151  0.93322448  0.14250341    -0.22300
C719        C  0.29402880  0.45137177  0.30136231    -0.05200
C720        C  0.28644838  0.45027496  0.35877272     0.00800
C721        C  0.27969596  0.39813345  0.38588196    -0.07800
C722        C  0.29645318  0.34837121  0.35961601    -0.05200
C723        C  0.30484421  0.34745444  0.30162296     0.00800
C724        C  0.30447591  0.40192231  0.27155364    -0.07700
C725        C  0.31141482  0.41120204  0.20840108     0.62700
H726        H  0.29841917  0.49241371  0.28148090     0.13400
H727        H  0.29193170  0.30953172  0.38293260     0.13400
C728        C  0.25078033  0.39417344  0.44102551     0.62900
F729        F  0.30283136  0.46722727  0.19170077    -0.22300
F730        F  0.27366209  0.38245747  0.17839545    -0.19600
F731        F  0.36494023  0.39593197  0.19321441    -0.19300
F732        F  0.22139376  0.44372434  0.45270198    -0.19300
F733        F  0.28982823  0.38202019  0.48229455    -0.19600
F734        F  0.21296066  0.35233481  0.43930006    -0.22300
C735        C  0.08718770  0.22287790  0.11726451    -0.05200
C736        C  0.05221664  0.19286039  0.15225771     0.00800
C737        C  0.07043325  0.17698788  0.20624088    -0.07800
C738        C  0.12623612  0.18105223  0.21938544    -0.05200
C739        C  0.16458097  0.20709992  0.18342409     0.00800
C740        C  0.14208681  0.23315965  0.13254778    -0.07700
C741        C  0.17184227  0.27520711  0.09512139     0.62700
H742        H  0.07213735  0.23611493  0.07620683     0.13400
H743        H  0.13670972  0.17012220  0.26189233     0.13400
C744        C  0.03285123  0.15176059  0.25015508     0.62900
F745        F  0.21096440  0.24683843  0.06373588    -0.22300
F746        F  0.19678905  0.31593971  0.12451475    -0.19600
F747        F  0.13511639  0.30440946  0.05900188    -0.19300
F748        F  0.05076688  0.09657187  0.26213181    -0.19300
F749        F  0.97784846  0.15278195  0.23325753    -0.19600
F750        F  0.03548344  0.18209366  0.29827133    -0.22300
loop_ 
_geom_bond_atom_site_label_1 
_geom_bond_atom_site_label_2 
_geom_bond_distance 
_geom_bond_site_symmetry_2 
_ccdc_geom_bond_type 
C1            C3   1.574       .  S
C1            C5   1.581       .  S
C1            C4   1.535       .  S
C1          C739   1.528       .  S
C2            C6   1.559       .  S
C2            C8   1.591       .  S
C2            C7   1.533       .  S
C2          C723   1.537       .  S
C3           C11   1.412       .  A
C3            C6   1.392       .  A
C4           C15   1.401       .  A
C4            C7   1.346       .  A
C5           C19   1.401       .  A
C5            C8   1.406       .  A
C6            C9   1.396       .  A
C7           C13   1.391       .  A
C8           C16   1.416       .  A
C9           N10   1.366       .  A
C9           H22   1.080       .  S
N10          C11   1.374       .  A
N10         C284   1.488       .  S
C11          H12   1.080       .  S
C13          N14   1.346       .  A
C13          H23   1.076       .  S
N14          C15   1.353       .  A
N14          C45   1.450       .  S
C15          H21   1.081       .  S
C16          N17   1.378       .  A
C16          H18   1.081       .  S
N17          C19   1.365       .  A
N17         C101   1.488       .  S
C19          H20   1.082       .  S
N24          C29   1.352   1_655  A
N24          C28   1.356       .  A
N24          H56   1.044       .  S
N25          C32   1.362       .  A
N25          C33   1.358       .  A
N26          C31   1.367   1_655  A
N26          C30   1.362       .  A
N26          H57   1.044       .  S
N27          C34   1.357       .  A
N27          C35   1.359       .  A
C28          C36   1.385       .  A
C28          C44   1.416       .  A
C29          C45   1.414       .  A
C29          C37   1.386       .  A
C30          C38   1.388       .  A
C30          C47   1.439       .  A
C31          C46   1.441       .  A
C31          C39   1.387       .  A
C32          C44   1.429       .  A
C32          C40   1.385       .  A
C33          C47   1.425       .  A
C33          C41   1.386       .  A
C34          C42   1.385       .  A
C34          C45   1.422       .  A
C35          C43   1.384       .  A
C35          C46   1.420       .  A
C36          C37   1.378   1_655  A
C36          H48   1.082       .  S
C37          H49   1.082       .  S
C38          C39   1.388   1_655  A
C38          H50   1.082       .  S
C39          H51   1.082       .  S
C40          C41   1.377       .  A
C40          H52   1.080       .  S
C41          H53   1.082       .  S
C42          C43   1.372       .  A
C42          H54   1.081       .  S
C43          H55   1.082       .  S
C44         N333   1.462       .  S
C46         N379   1.473       .  S
C47          N71   1.464       .  S
C58          C60   1.556       .  S
C58          C62   1.564       .  S
C58          C61   1.544       .  S
C58         C704   1.515       .  S
C59          C63   1.541       .  S
C59          C65   1.548       .  S
C59          C64   1.574       .  S
C59         C688   1.528       .  S
C60          C68   1.390       .  A
C60          C63   1.375       .  A
C61          C72   1.386       .  A
C61          C64   1.390       .  A
C62          C76   1.413       .  A
C62          C65   1.386       .  A
C63          C66   1.399       .  A
C64          C70   1.403       .  A
C65          C73   1.382       .  A
C66          N67   1.367       .  A
C66          H79   1.080       .  S
N67          C68   1.353       .  A
N67         C250   1.463       .  S
C68          H69   1.080       .  S
C70          N71   1.371       .  A
C70          H80   1.082       .  S
N71          C72   1.356       .  A
C72          H78   1.083       .  S
C73          N74   1.339       .  A
C73          H75   1.078       .  S
N74          C76   1.369       .  A
N74         C136   1.462       .  S
C76          H77   1.070       .  S
N81          C86   1.362   1_545  A
N81          C85   1.370       .  A
N81         H113   1.042       .  S
N82          C89   1.367       .  A
N82          C90   1.361       .  A
N83          C88   1.360       .  A
N83          C87   1.351   1_565  A
N83         H114   1.045       .  S
N84          C91   1.355       .  A
N84          C92   1.363       .  A
C85          C93   1.386       .  A
C85         C101   1.441       .  A
C86         C102   1.437       .  A
C86          C94   1.387       .  A
C87          C95   1.383       .  A
C87         C104   1.412       .  A
C88         C103   1.415       .  A
C88          C96   1.383       .  A
C89         C101   1.436       .  A
C89          C97   1.384       .  A
C90         C104   1.438       .  A
C90          C98   1.386       .  A
C91          C99   1.390       .  A
C91         C102   1.428       .  A
C92         C100   1.379       .  A
C92         C103   1.421       .  A
C93          C94   1.385   1_545  A
C93         H105   1.082       .  S
C94         H106   1.082       .  S
C95          C96   1.377   1_545  A
C95         H107   1.078       .  S
C96         H108   1.081       .  S
C97          C98   1.383       .  A
C97         H109   1.082       .  S
C98         H110   1.079       .  S
C99         C100   1.379       .  A
C99         H111   1.082       .  S
C100        H112   1.081       .  S
C102        N382   1.460       .  S
C103        N158   1.467       .  S
C104        N359   1.459       .  S
N115        C120   1.355   1_545  A
N115        C119   1.365       .  A
N115        H147   1.044       .  S
N116        C123   1.367       .  A
N116        C124   1.357       .  A
N117        C122   1.373   1_545  A
N117        C121   1.362       .  A
N117        H148   1.042       .  S
N118        C125   1.363       .  A
N118        C126   1.371       .  A
C119        C127   1.383       .  A
C119        C135   1.426       .  A
C120        C136   1.425       .  A
C120        C128   1.389       .  A
C121        C129   1.389       .  A
C121        C138   1.442       .  A
C122        C137   1.445       .  A
C122        C130   1.386       .  A
C123        C135   1.426       .  A
C123        C131   1.380       .  A
C124        C138   1.432       .  A
C124        C132   1.389       .  A
C125        C133   1.389       .  A
C125        C136   1.446       .  A
C126        C134   1.382       .  A
C126        C137   1.439       .  A
C127        C128   1.377   1_545  A
C127        H139   1.082       .  S
C128        H140   1.081       .  S
C129        C130   1.384   1_545  A
C129        H141   1.082       .  S
C130        H142   1.082       .  S
C131        C132   1.376       .  A
C131        H143   1.082       .  S
C132        H144   1.080       .  S
C133        C134   1.383       .  A
C133        H145   1.081       .  S
C134        H146   1.082       .  S
C135        N336   1.477       .  S
C137        N313   1.496       .  S
C138        N222   1.462       .  S
C149        C151   1.550       .  S
C149        C153   1.549       .  S
C149        C152   1.561       .  S
C149        C672   1.530       .  S
C150        C154   1.566       .  S
C150        C156   1.546       .  S
C150        C155   1.574       .  S
C150        C659   1.547       .  S
C151        C159   1.390       .  A
C151        C154   1.400       .  A
C152        C163   1.392       .  A
C152        C155   1.390       .  A
C153        C167   1.400       .  A
C153        C156   1.369       .  A
C154        C157   1.397       .  A
C155        C161   1.405       .  A
C156        C164   1.393       .  A
C157        N158   1.368       .  A
C157        H170   1.077       .  S
N158        C159   1.362       .  A
C159        H160   1.082       .  S
C161        N162   1.367       .  A
C161        H171   1.083       .  S
N162        C163   1.353       .  A
N162        C192   1.471       .  S
C163        H169   1.065       .  S
C164        N165   1.355       .  A
C164        H166   1.081       .  S
N165        C167   1.358       .  A
N165        C252   1.459       .  S
C167        H168   1.078       .  S
N172        C177   1.366       .  A
N172        C176   1.367       .  A
N172        H204   1.042       .  S
N173        C180   1.356       .  A
N173        C181   1.358   1_455  A
N174        C179   1.356       .  A
N174        C178   1.358       .  A
N174        H205   1.040       .  S
N175        C182   1.365       .  A
N175        C183   1.366   1_455  A
C176        C184   1.388       .  A
C176        C192   1.444       .  A
C177        C193   1.438       .  A
C177        C185   1.385       .  A
C178        C186   1.383       .  A
C178        C195   1.419       .  A
C179        C194   1.416       .  A
C179        C187   1.383       .  A
C180        C192   1.423       .  A
C180        C188   1.387       .  A
C181        C195   1.419       .  A
C181        C189   1.383       .  A
C182        C190   1.387       .  A
C182        C193   1.439       .  A
C183        C191   1.383       .  A
C183        C194   1.438       .  A
C184        C185   1.383       .  A
C184        H196   1.082       .  S
C185        H197   1.082       .  S
C186        C187   1.377       .  A
C186        H198   1.081       .  S
C187        H199   1.082       .  S
C188        C189   1.376   1_455  A
C188        H200   1.081       .  S
C189        H201   1.082       .  S
C190        C191   1.381   1_455  A
C190        H202   1.081       .  S
C191        H203   1.078       .  S
C193        N356   1.478       .  S
C194        N219   1.468       .  S
C195        N310   1.460       .  S
C206        C208   1.581       .  S
C206        C210   1.530       .  S
C206        C209   1.537       .  S
C206        C627   1.536       .  S
C207        C211   1.595       .  S
C207        C213   1.544       .  S
C207        C212   1.576       .  S
C207        C640   1.557       .  S
C208        C216   1.403       .  A
C208        C211   1.425       .  A
C209        C220   1.390       .  A
C209        C212   1.373       .  A
C210        C224   1.392       .  A
C210        C213   1.357       .  A
C211        C214   1.405       .  A
C212        C218   1.407       .  A
C213        C221   1.397       .  A
C214        N215   1.360       .  A
C214        H227   1.068       .  S
N215        C216   1.363       .  A
N215        C286   1.476       .  S
C216        H217   1.071       .  S
C218        N219   1.372       .  A
C218        H228   1.076       .  S
N219        C220   1.351       .  A
C220        H226   1.083       .  S
C221        N222   1.364       .  A
C221        H223   1.081       .  S
N222        C224   1.354       .  A
C224        H225   1.082       .  S
N229        C234   1.355       .  A
N229        C233   1.359       .  A
N229        H261   1.044       .  S
N230        C237   1.364       .  A
N230        C238   1.357   1_554  A
N231        C236   1.368       .  A
N231        C235   1.360       .  A
N231        H262   1.039       .  S
N232        C239   1.361       .  A
N232        C240   1.366   1_554  A
C233        C241   1.383       .  A
C233        C249   1.418       .  A
C234        C250   1.416       .  A
C234        C242   1.383       .  A
C235        C243   1.386       .  A
C235        C252   1.433       .  A
C236        C251   1.437       .  A
C236        C244   1.386       .  A
C237        C249   1.425       .  A
C237        C245   1.382       .  A
C238        C252   1.429       .  A
C238        C246   1.387       .  A
C239        C247   1.376       .  A
C239        C250   1.429       .  A
C240        C248   1.382       .  A
C240        C251   1.432       .  A
C241        C242   1.376       .  A
C241        H253   1.080       .  S
C242        H254   1.078       .  S
C243        C244   1.381       .  A
C243        H255   1.079       .  S
C244        H256   1.082       .  S
C245        C246   1.378   1_554  A
C245        H257   1.082       .  S
C246        H258   1.081       .  S
C247        C248   1.383   1_554  A
C247        H259   1.078       .  S
C248        H260   1.081       .  S
C249        N375   1.467       .  S
C251        N306   1.484       .  S
N263        C268   1.369       .  A
N263        C267   1.358       .  A
N263        H295   1.039       .  S
N264        C271   1.353   1_556  A
N264        C272   1.363       .  A
N265        C270   1.356       .  A
N265        C269   1.367       .  A
N265        H296   1.042       .  S
N266        C273   1.369   1_556  A
N266        C274   1.360       .  A
C267        C275   1.388       .  A
C267        C283   1.433       .  A
C268        C284   1.436       .  A
C268        C276   1.386       .  A
C269        C277   1.381       .  A
C269        C286   1.426       .  A
C270        C285   1.427       .  A
C270        C278   1.389       .  A
C271        C283   1.424       .  A
C271        C279   1.389       .  A
C272        C286   1.416       .  A
C272        C280   1.379       .  A
C273        C281   1.383       .  A
C273        C284   1.438       .  A
C274        C282   1.389       .  A
C274        C285   1.439       .  A
C275        C276   1.383       .  A
C275        H287   1.081       .  S
C276        H288   1.082       .  S
C277        C278   1.379       .  A
C277        H289   1.080       .  S
C278        H290   1.082       .  S
C279        C280   1.373   1_554  A
C279        H291   1.079       .  S
C280        H292   1.082       .  S
C281        C282   1.383   1_554  A
C281        H293   1.079       .  S
C282        H294   1.082       .  S
C283        N329   1.450       .  S
C285        N352   1.459       .  S
C297        C299   1.547       .  S
C297        C301   1.581       .  S
C297        C300   1.545       .  S
C297        C592   1.512       .  S
C298        C302   1.564       .  S
C298        C304   1.586       .  S
C298        C303   1.550       .  S
C298        C608   1.521       .  S
C299        C307   1.393       .  A
C299        C302   1.378       .  A
C300        C311   1.396       .  A
C300        C303   1.362       .  A
C301        C315   1.414       .  A
C301        C304   1.404       .  A
C302        C305   1.409       .  A
C303        C309   1.397       .  A
C304        C312   1.406       .  A
C305        N306   1.377       .  A
C305        H318   1.080       .  S
N306        C307   1.366       .  A
C307        H308   1.082       .  S
C309        N310   1.354       .  A
C309        H319   1.072       .  S
N310        C311   1.357       .  A
C311        H317   1.080       .  S
C312        N313   1.366       .  A
C312        H314   1.069       .  S
N313        C315   1.375       .  A
C315        H316   1.074       .  S
C320        C322   1.533       .  S
C320        C324   1.579       .  S
C320        C323   1.546       .  S
C320        C579   1.539       .  S
C321        C325   1.533       .  S
C321        C327   1.583       .  S
C321        C326   1.549       .  S
C321        C560   1.534       .  S
C322        C330   1.392       .  A
C322        C325   1.358       .  A
C323        C334   1.389       .  A
C323        C326   1.378       .  A
C324        C338   1.399       .  A
C324        C327   1.421       .  A
C325        C328   1.391       .  A
C326        C332   1.395       .  A
C327        C335   1.400       .  A
C328        N329   1.358       .  A
C328        H341   1.082       .  S
N329        C330   1.351       .  A
C330        H331   1.081       .  S
C332        N333   1.367       .  A
C332        H342   1.081       .  S
N333        C334   1.355       .  A
C334        H340   1.083       .  S
C335        N336   1.367       .  A
C335        H337   1.078       .  S
N336        C338   1.367       .  A
C338        H339   1.076       .  S
C343        C345   1.547       .  S
C343        C347   1.550       .  S
C343        C346   1.573       .  S
C343        C528   1.528       .  S
C344        C348   1.540       .  S
C344        C350   1.538       .  S
C344        C349   1.583       .  S
C344        C544   1.515       .  S
C345        C353   1.400       .  A
C345        C348   1.364       .  A
C346        C357   1.399       .  A
C346        C349   1.411       .  A
C347        C361   1.387       .  A
C347        C350   1.363       .  A
C348        C351   1.385       .  A
C349        C355   1.402       .  A
C350        C358   1.404       .  A
C351        N352   1.349       .  A
C351        H364   1.081       .  S
N352        C353   1.368       .  A
C353        H354   1.082       .  S
C355        N356   1.368       .  A
C355        H365   1.080       .  S
N356        C357   1.369       .  A
C357        H363   1.079       .  S
C358        N359   1.370       .  A
C358        H360   1.081       .  S
N359        C361   1.341       .  A
C361        H362   1.076       .  S
C366        C368   1.576       .  S
C366        C370   1.549       .  S
C366        C369   1.575       .  S
C366        C512   1.548       .  S
C367        C371   1.540       .  S
C367        C373   1.549       .  S
C367        C372   1.558       .  S
C367        C499   1.515       .  S
C368        C376   1.404       .  A
C368        C371   1.397       .  A
C369        C380   1.403       .  A
C369        C372   1.382       .  A
C370        C384   1.392       .  A
C370        C373   1.373       .  A
C371        C374   1.385       .  A
C372        C378   1.401       .  A
C373        C381   1.400       .  A
C374        N375   1.357       .  A
C374        H387   1.083       .  S
N375        C376   1.371       .  A
C376        H377   1.073       .  S
C378        N379   1.356       .  A
C378        H388   1.072       .  S
N379        C380   1.368       .  A
C380        H386   1.083       .  S
C381        N382   1.358       .  A
C381        H383   1.078       .  S
N382        C384   1.358       .  A
C384        H385   1.082       .  S
C389        N407   1.342   1_455  A
C389        C426   1.468       .  S
C389        C496   1.504       .  S
N390        N407   1.313       .  A
N390        N412   1.312   1_655  A
N390       Co427   2.053       .  S
C391        N416   1.313       .  A
C391        H436   1.082       .  S
C391        C429   1.445       .  S
H392        C433   1.082       .  S
C393        N417   1.349       .  A
C393        H422   1.080       .  S
C393        C397   1.476   1_556  S
Co394       N412   2.061   1_545  S
Co394       N402   2.015       .  S
Co394       N434   2.087   1_545  S
Co394       N410   2.054       .  S
Co394      Cl438   2.395   1_444  S
N395        C433   1.339   1_455  A
N395        N402   1.308       .  A
N395       Co396   2.075   1_554  S
Co396       N399   2.032   1_455  S
Co396       N416   2.011       .  S
Co396       N403   2.018       .  S
Co396      Cl438   2.421   1_445  S
C397        N435   1.336   1_554  A
C397        C563   1.474       .  S
N398        N405   1.309   1_556  A
N398        N428   1.329       .  A
N398       Co431   2.077       .  S
N399        N417   1.318       .  A
N399        N435   1.310       .  A
N400        C429   1.349   1_554  A
N400        N410   1.321       .  A
H401        C426   1.080       .  S
N402        N423   1.307       .  A
N403        N421   1.301   1_455  A
N403        N408   1.314       .  A
C404        N408   1.347   1_655  A
C404        C432   1.453       .  S
C404        C624   1.465       .  S
N405        C420   1.307       .  A
N405       Co427   1.975       .  S
C406        N434   1.348       .  A
C406        H440   1.079       .  S
C406        C409   1.473       .  S
C409        N430   1.337       .  A
C409        C656   1.471   1_554  S
N410        N416   1.309   1_554  A
N411        C437   1.342   1_655  A
N411        N413   1.306       .  A
N411       Co427   2.073   1_556  S
N412        C426   1.328       .  A
N413        N441   1.304       .  A
N413       Co431   2.037       .  S
H414        C437   1.077       .  S
H415        C432   1.078   1_565  S
N417       Co431   2.110   1_545  S
N418        N430   1.308       .  A
N418        N434   1.310       .  A
N418       Co427   2.022   1_455  S
C419        N423   1.342       .  A
C419        C433   1.473   1_455  S
C419        C736   1.461       .  S
C420        H424   1.082       .  S
C420        C439   1.441       .  S
N421        C432   1.331       .  A
N421       Co431   2.045   1_545  S
C425        N441   1.340       .  A
C425        C437   1.485   1_655  S
C425        C611   1.489       .  S
Co427      Cl438   2.425   1_554  S
N428        C439   1.358   1_556  A
C429        C547   1.445       .  S
Co431      Cl438   2.354       .  S
C439        C707   1.450       .  S
C442        N460   1.353       .  A
C442        C479   1.452       .  S
C442        C576   1.479       .  S
N443        N460   1.315       .  A
N443        N465   1.309       .  A
N443       Co480   2.053       .  S
C444        N469   1.312       .  A
C444        H489   1.081       .  S
C444        C482   1.451       .  S
H445        C486   1.080       .  S
C446        N470   1.339       .  A
C446        H475   1.081       .  S
C446        C450   1.471       .  S
Co447       N465   2.044       .  S
Co447       N455   2.009       .  S
Co447       N487   2.101       .  S
Co447       N463   2.062       .  S
Co447      Cl491   2.383       .  S
N448        C486   1.341       .  A
N448        N455   1.307       .  A
N448       Co449   2.081       .  S
Co449       N452   2.050       .  S
Co449       N469   2.013       .  S
Co449       N456   2.043       .  S
Co449      Cl491   2.421       .  S
C450        N488   1.340       .  A
C450        C515   1.466       .  S
N451        N458   1.316       .  A
N451        N481   1.327       .  A
N451       Co484   2.092       .  S
N452        N470   1.314       .  A
N452        N488   1.310       .  A
N453        C482   1.351       .  A
N453        N463   1.324       .  A
H454        C479   1.082       .  S
N455        N476   1.306       .  A
N456        N474   1.307       .  A
N456        N461   1.316       .  A
C457        N461   1.342       .  A
C457        C485   1.472       .  S
C457        C675   1.506       .  S
N458        C473   1.314       .  A
N458       Co480   1.992       .  S
C459        N487   1.342       .  A
C459        H493   1.080       .  S
C459        C462   1.476       .  S
C462        N483   1.339       .  A
C462        C643   1.473       .  S
N463        N469   1.310       .  A
N464        C490   1.342       .  A
N464        N466   1.310       .  A
N464       Co480   2.087       .  S
N465        C479   1.330       .  A
N466        N494   1.301       .  A
N466       Co484   2.019       .  S
H467        C490   1.081       .  S
H468        C485   1.080       .  S
N470       Co484   2.072       .  S
N471        N483   1.311       .  A
N471        N487   1.314       .  A
N471       Co480   2.027       .  S
C472        N476   1.339       .  A
C472        C486   1.477       .  S
C472        C720   1.460       .  S
C473        H477   1.081       .  S
C473        C492   1.439       .  S
N474        C485   1.331       .  A
N474       Co484   2.060       .  S
C478        N494   1.331       .  A
C478        C490   1.479       .  S
C478        C595   1.457       .  S
Co480      Cl491   2.445       .  S
N481        C492   1.348       .  A
C482        C531   1.447       .  S
Co484      Cl491   2.364       .  S
C492        C691   1.454       .  S
C495        C496   1.421       .  A
C495        C500   1.389       .  A
C495        H502   1.076       .  S
C496        C497   1.444       .  A
C497        C504   1.534       .  S
C497        C498   1.404       .  A
C498        C499   1.391       .  A
C498        H503   1.082       .  S
C499        C500   1.393       .  A
C500        C501   1.522       .  S
C501        F505   1.380       .  S
C501        F506   1.382       .  S
C501        F507   1.384       .  S
C504        F508   1.382       .  S
C504        F509   1.384   1_455  S
C504        F510   1.385       .  S
C511        C512   1.426       .  A
C511        C516   1.392       .  A
C511        H518   1.072       .  S
C512        C513   1.440       .  A
C513        C520   1.518       .  S
C513        C514   1.408       .  A
C514        C515   1.398       .  A
C514        H519   1.082       .  S
C515        C516   1.399       .  A
C516        C517   1.526       .  S
C517        F521   1.385       .  S
C517        F522   1.383       .  S
C517        F523   1.381       .  S
C520        F524   1.376       .  S
C520        F525   1.380       .  S
C520        F526   1.386       .  S
C527        C528   1.429       .  A
C527        C532   1.388       .  A
C527        H534   1.077       .  S
C528        C529   1.444       .  A
C529        C536   1.525       .  S
C529        C530   1.420       .  A
C530        C531   1.403       .  A
C530        H535   1.080       .  S
C531        C532   1.384       .  A
C532        C533   1.509       .  S
C533        F537   1.383       .  S
C533        F538   1.383       .  S
C533        F539   1.384       .  S
C536        F540   1.380       .  S
C536        F541   1.377       .  S
C536        F542   1.377       .  S
C543        C544   1.399       .  A
C543        C548   1.386       .  A
C543        H550   1.072       .  S
C544        C545   1.456       .  A
C545        C552   1.526       .  S
C545        C546   1.400       .  A
C546        C547   1.376       .  A
C546        H551   1.085       .  S
C547        C548   1.412       .  A
C548        C549   1.506       .  S
C549        F553   1.380       .  S
C549        F554   1.382   1_556  S
C549        F555   1.384       .  S
C552        F556   1.387       .  S
C552        F557   1.379       .  S
C552        F558   1.376       .  S
C559        C560   1.401       .  A
C559        C564   1.408       .  A
C559        H566   1.069       .  S
C560        C561   1.447       .  A
C561        C568   1.540       .  S
C561        C562   1.400       .  A
C562        C563   1.393       .  A
C562        H567   1.084       .  S
C563        C564   1.416       .  A
C564        C565   1.510       .  S
C565        F569   1.384       .  S
C565        F570   1.382       .  S
C565        F571   1.380       .  S
C568        F572   1.379       .  S
C568        F573   1.378       .  S
C568        F574   1.386       .  S
C575        C576   1.418       .  A
C575        C580   1.408       .  A
C575        H582   1.077       .  S
C576        C577   1.393       .  A
C577        C584   1.525       .  S
C577        C578   1.389       .  A
C578        C579   1.431       .  A
C578        H583   1.072       .  S
C579        C580   1.430       .  A
C580        C581   1.529       .  S
C581        F585   1.373       .  S
C581        F586   1.379       .  S
C581        F587   1.386       .  S
C584        F588   1.383       .  S
C584        F589   1.384       .  S
C584        F590   1.383       .  S
C591        C592   1.411       .  A
C591        C596   1.393       .  A
C591        H598   1.083       .  S
C592        C593   1.393       .  A
C593        C600   1.516       .  S
C593        C594   1.404       .  A
C594        C595   1.417       .  A
C594        H599   1.081       .  S
C595        C596   1.412       .  A
C596        C597   1.517       .  S
C597        F601   1.382       .  S
C597        F602   1.376       .  S
C597        F603   1.383       .  S
C600        F604   1.378       .  S
C600        F605   1.383       .  S
C600        F606   1.384       .  S
C607        C608   1.418       .  A
C607        C612   1.418       .  A
C607        H614   1.081       .  S
C608        C609   1.390       .  A
C609        C616   1.515       .  S
C609        C610   1.393       .  A
C610        C611   1.418       .  A
C610        H615   1.085       .  S
C611        C612   1.420       .  A
C612        C613   1.521       .  S
C613        F617   1.384       .  S
C613        F618   1.378       .  S
C613        F619   1.385       .  S
C616        F620   1.383       .  S
C616        F621   1.384       .  S
C616        F622   1.383       .  S
C623        C624   1.415       .  A
C623        C628   1.397       .  A
C623        H630   1.078       .  S
C624        C625   1.384       .  A
C625        C632   1.522       .  S
C625        C626   1.388       .  A
C626        C627   1.441       .  A
C626        H631   1.080       .  S
C627        C628   1.414       .  A
C628        C629   1.513       .  S
C629        F633   1.385       .  S
C629        F634   1.380       .  S
C629        F635   1.379       .  S
C632        F636   1.384       .  S
C632        F637   1.384   1_655  S
C632        F638   1.383       .  S
C639        C640   1.426       .  A
C639        C644   1.400       .  A
C639        H646   1.076       .  S
C640        C641   1.434       .  A
C641        C648   1.506       .  S
C641        C642   1.407       .  A
C642        C643   1.397       .  A
C642        H647   1.080       .  S
C643        C644   1.408       .  A
C644        C645   1.526       .  S
C645        F649   1.383       .  S
C645        F650   1.383       .  S
C645        F651   1.384       .  S
C648        F652   1.379       .  S
C648        F653   1.376       .  S
C648        F654   1.384       .  S
C655        C656   1.398       .  A
C655        C660   1.416       .  A
C655        H662   1.082       .  S
C656        C657   1.404       .  A
C657        C664   1.525       .  S
C657        C658   1.390       .  A
C658        C659   1.420       .  A
C658        H663   1.072       .  S
C659        C660   1.446       .  A
C660        C661   1.522       .  S
C661        F665   1.385       .  S
C661        F666   1.377       .  S
C661        F667   1.380       .  S
C664        F668   1.381       .  S
C664        F669   1.384   1_556  S
C664        F670   1.384       .  S
C671        C672   1.393       .  A
C671        C676   1.405       .  A
C671        H678   1.080       .  S
C672        C673   1.404       .  A
C673        C680   1.525       .  S
C673        C674   1.399       .  A
C674        C675   1.417       .  A
C674        H679   1.076       .  S
C675        C676   1.440       .  A
C676        C677   1.533       .  S
C677        F681   1.383       .  S
C677        F682   1.384       .  S
C677        F683   1.381       .  S
C680        F684   1.385       .  S
C680        F685   1.379       .  S
C680        F686   1.381       .  S
C687        C688   1.410       .  A
C687        C692   1.393       .  A
C687        H694   1.073       .  S
C688        C689   1.456       .  A
C689        C696   1.524       .  S
C689        C690   1.411       .  A
C690        C691   1.383       .  A
C690        H695   1.084       .  S
C691        C692   1.407       .  A
C692        C693   1.507       .  S
C693        F697   1.384       .  S
C693        F698   1.380       .  S
C693        F699   1.374       .  S
C696        F700   1.378       .  S
C696        F701   1.378       .  S
C696        F702   1.385       .  S
C703        C704   1.416       .  A
C703        C708   1.392       .  A
C703        H710   1.082       .  S
C704        C705   1.401       .  A
C705        C712   1.507       .  S
C705        C706   1.403       .  A
C706        C707   1.404       .  A
C706        H711   1.083       .  S
C707        C708   1.415       .  A
C708        C709   1.514       .  S
C709        F713   1.378   1_554  S
C709        F714   1.379       .  S
C709        F715   1.374       .  S
C712        F716   1.385       .  S
C712        F717   1.381       .  S
C712        F718   1.383       .  S
C719        C720   1.390       .  A
C719        C724   1.408       .  A
C719        H726   1.084       .  S
C720        C721   1.400       .  A
C721        C728   1.500       .  S
C721        C722   1.401       .  A
C722        C723   1.408       .  A
C722        H727   1.076       .  S
C723        C724   1.464       .  A
C724        C725   1.536       .  S
C725        F729   1.386       .  S
C725        F730   1.379       .  S
C725        F731   1.377       .  S
C728        F732   1.382       .  S
C728        F733   1.379       .  S
C728        F734   1.384       .  S
C735        C736   1.397       .  A
C735        C740   1.407       .  A
C735        H742   1.082       .  S
C736        C737   1.402       .  A
C737        C744   1.521       .  S
C737        C738   1.390       .  A
C738        C739   1.418       .  A
C738        H743   1.072       .  S
C739        C740   1.445       .  A
C740        C741   1.530       .  S
C741        F745   1.373       .  S
C741        F746   1.376       .  S
C741        F747   1.385       .  S
C744        F748   1.384       .  S
C744        F749   1.384   1_455  S
C744        F750   1.383       .  S
