geometry optimzed in LAMMPS
_audit_creation_date              2020-12-01 
_audit_creation_method            'lammps2cif' 
_symmetry_space_group_name_H-M    'P1' 
_symmetry_Int_Tables_number       1 
_symmetry_cell_setting            triclinic 
loop_ 
_symmetry_equiv_pos_as_xyz 
  x,y,z 
_cell_length_a                    56.28285107 
_cell_length_b                    56.450169504714154 
_cell_length_c                    56.39368717974499 
_cell_angle_alpha                 90.12022354367745 
_cell_angle_beta                  90.08547881075324 
_cell_angle_gamma                 89.99830457780814 
loop_ 
_atom_site_label 
_atom_site_type_symbol 
_atom_site_fract_x 
_atom_site_fract_y 
_atom_site_fract_z 
_atom_site_charge 
C1          C  0.08880990  0.70369356  0.94795387     0.03400
C2          C  0.07690145  0.68680587  0.96194700    -0.12700
C3          C  0.05469810  0.67772282  0.95480486     0.00900
C4          C  0.04420999  0.68586920  0.93361506    -0.11200
C5          C  0.05568988  0.70317596  0.91980131     0.03400
C6          C  0.07807298  0.71149112  0.92691871    -0.10700
H7          H  0.08487889  0.68065078  0.97831300     0.09000
H8          H  0.02710930  0.67897065  0.92806385     0.06600
H9          H  0.08728946  0.72417277  0.91583008     0.06400
C10         C  0.92094055  0.70912900  0.96174279     0.03400
C11         C  0.92128529  0.70957783  0.93693087    -0.12700
C12         C  0.93481208  0.69348316  0.92387401     0.00900
C13         C  0.94779046  0.67596673  0.93587363    -0.11200
C14         C  0.94787383  0.67516239  0.96084258     0.03400
C15         C  0.93455666  0.69197682  0.97379161    -0.10700
H16         H  0.91103950  0.72289121  0.92757461     0.09000
H17         H  0.95819874  0.66329688  0.92582983     0.06600
H18         H  0.93446540  0.69144224  0.99299789     0.06400
C19         C  0.94295024  0.68888274  0.10886929     0.03400
C20         C  0.95560562  0.67270916  0.09470555    -0.12700
C21         C  0.94952498  0.66943386  0.07072476     0.00900
C22         C  0.92994139  0.68165688  0.06108812    -0.11200
C23         C  0.91665428  0.69705244  0.07550337     0.03400
C24         C  0.92345167  0.70075677  0.09901865    -0.10700
H25         H  0.97033193  0.66285248  0.10217586     0.09000
H26         H  0.92481866  0.67885739  0.04276227     0.06600
H27         H  0.91364865  0.71353012  0.10954908     0.06400
C28         C  0.07009225  0.69930761  0.10146502     0.03400
C29         C  0.09300990  0.70328483  0.09275365    -0.12700
C30         C  0.10088420  0.69246804  0.07183350     0.00900
C31         C  0.08541991  0.67741570  0.05934277    -0.11200
C32         C  0.06217249  0.67335990  0.06751817     0.03400
C33         C  0.05444367  0.68450636  0.08859278    -0.10700
H34         H  0.10484695  0.71503459  0.10238629     0.09000
H35         H  0.09164254  0.66841424  0.04352692     0.06600
H36         H  0.03678802  0.68101520  0.09534508     0.06400
C37         C  0.94978378  0.48892105  0.09939714     0.03400
C38         C  0.92900727  0.47870037  0.09062791    -0.12700
C39         C  0.92080716  0.48363580  0.06775340     0.00900
C40         C  0.93350130  0.49986532  0.05361517    -0.11200
C41         C  0.95439285  0.51054482  0.06248363     0.03400
C42         C  0.96250360  0.50489120  0.08535086    -0.10700
H43         H  0.91898482  0.46683209  0.10193754     0.09000
H44         H  0.92695211  0.50451205  0.03615382     0.06600
H45         H  0.97827785  0.51339079  0.09241443     0.06400
C46         C  0.91062348  0.49362813  0.95420317     0.03400
C47         C  0.92532321  0.50903921  0.96734837    -0.12700
C48         C  0.94792542  0.51537230  0.95859361     0.00900
C49         C  0.95567187  0.50625717  0.93675679    -0.11200
C50         C  0.94086419  0.49124196  0.92356191     0.03400
C51         C  0.91870681  0.48475499  0.93253633    -0.10700
H52         H  0.91903717  0.51643988  0.98393813     0.09000
H53         H  0.97268082  0.51166523  0.92956807     0.06600
H54         H  0.90750755  0.47282879  0.92236039     0.06400
C55         C  0.09583946  0.49266735  0.94129906     0.03400
C56         C  0.08850302  0.49045388  0.91760833    -0.12700
C57         C  0.06925486  0.50344371  0.90849369     0.00900
C58         C  0.05615570  0.51784982  0.92430501    -0.11200
C59         C  0.06210597  0.51909843  0.94862649     0.03400
C60         C  0.08208421  0.50656147  0.95695898    -0.10700
H61         H  0.09834222  0.47876038  0.90601749     0.09000
H62         H  0.04151663  0.52842985  0.91773606     0.06600
H63         H  0.08736178  0.50829304  0.97536424     0.06400
C64         C  0.06709512  0.48653381  0.09890667     0.03400
C65         C  0.09085504  0.48361566  0.09188644    -0.12700
C66         C  0.09956345  0.49452264  0.07149506     0.00900
C67         C  0.08500532  0.50962134  0.05839995    -0.11200
C68         C  0.06164945  0.51401532  0.06562445     0.03400
C69         C  0.05253875  0.50237439  0.08588969    -0.10700
H70         H  0.10264199  0.47230504  0.10202505     0.09000
H71         H  0.09200475  0.51823452  0.04271742     0.06600
H72         H  0.03442105  0.50566008  0.09141966     0.06400
O73         O  0.04917486  0.63716898  0.96247674    -0.75000
O74         O  0.02915756  0.66392655  0.98553575    -0.53900
C75         C  0.04349408  0.65843118  0.96851751     0.78700
O76         O  0.95658582  0.55528177  0.96644782    -0.59600
O77         O  0.97978877  0.52679865  0.98369373    -0.52600
C78         C  0.96231488  0.53359203  0.97055644     0.70800
O79         O  0.95807041  0.63495095  0.96598150    -0.74100
O80         O  0.97629023  0.66263783  0.98942502    -0.54700
C81         C  0.96159626  0.65642401  0.97299429     0.76800
O82         O  0.05358312  0.55823381  0.96025722    -0.59300
O83         O  0.03509845  0.52830486  0.98034137    -0.52400
C84         C  0.04947382  0.53617308  0.96427073     0.73400
Zr85       Zr  0.04109936  0.59675106  0.97562007     2.54700
O86         O  0.04192038  0.59683484  0.93246535    -0.79900
O87         O  0.08416271  0.59951447  0.97922741    -0.93300
Zr88       Zr  0.97098310  0.59487024  0.97639307     2.64700
O89         O  0.97419051  0.59490098  0.93334857    -0.98200
O90         O  0.92773832  0.59532701  0.97642006    -0.80300
O91         O  0.00535473  0.61908491  0.97677471    -0.83600
O92         O  0.00663208  0.57250149  0.97441293    -2.18400
O93         O  0.05341283  0.55399427  0.05790421    -0.67000
O94         O  0.03345508  0.52585926  0.03645522    -0.51600
C95         C  0.04823114  0.53236534  0.05272877     0.71700
O96         O  0.95909656  0.63015762  0.06105558    -0.59900
O97         O  0.97753930  0.65996671  0.04073033    -0.51900
C98         C  0.96288811  0.65214088  0.05644171     0.73500
O99         O  0.96099049  0.55094988  0.05593472    -0.71300
O100        O  0.98180075  0.52417499  0.03361818    -0.50000
C101        C  0.96634338  0.52971009  0.04952962     0.74900
O102        O  0.05326310  0.63352704  0.05924947    -0.66700
O103        O  0.03143767  0.66210201  0.04049251    -0.53900
C104        C  0.04761281  0.65526518  0.05523528     0.73300
Zr105      Zr  0.04215788  0.59395066  0.04548384     2.77500
O106        O  0.04495875  0.59420976  0.08859653    -0.97400
O107        O  0.08508969  0.59479957  0.04028800    -0.78200
Zr108      Zr  0.97184201  0.59165688  0.04619287     2.70100
O109        O  0.97195849  0.58914714  0.08927731    -0.79500
O110        O  0.92870608  0.59112878  0.04295255    -0.98600
Zr111      Zr  0.00499998  0.64068306  0.01324967     2.21500
Zr112      Zr  0.00814124  0.54784830  0.00884947     2.11100
O113        O  0.00768818  0.56976744  0.04527097    -2.47300
O114        O  0.00626367  0.61596984  0.04757203    -0.79300
O115        O  0.04314159  0.57183889  0.00952342    -0.71500
O116        O  0.97022253  0.61642229  0.01243945    -2.32400
O117        O  0.04129436  0.61872769  0.01156572    -2.28600
O118        O  0.97207223  0.57005528  0.01021828    -0.73200
H119        H  0.00649569  0.56303475  0.96013168     0.78800
H120        H  0.95597686  0.62592200  0.01308095     0.79900
H121        H  0.00787164  0.55931785  0.05880094     0.82100
H122        H  0.05478795  0.62930648  0.01172899     0.79700
H123        H  0.92325338  0.59550887  0.95943800     0.42700
H124        H  0.92527266  0.57870032  0.03101170     0.41700
H125        H  0.98547852  0.59922292  0.09427003     0.41400
H126        H  0.03623664  0.57990899  0.09379845     0.39300
H127        H  0.08878994  0.58012396  0.03138542     0.42400
H128        H  0.08738341  0.61624994  0.98343278     0.37200
H129        H  0.02843687  0.60707084  0.92777972     0.43300
H130        H  0.95802590  0.59893200  0.92771023     0.39800
H131        H  0.06185658  0.59067664  0.09200727     0.44700
H132        H  0.09004171  0.59788339  0.96276713     0.43400
H133        H  0.98380655  0.60911580  0.92969467     0.43500
H134        H  0.92320350  0.58432448  0.05815215     0.43900
C135        C  0.58927361  0.05416393  0.11214056     0.03400
C136        C  0.60370752  0.03540842  0.10507419    -0.12700
C137        C  0.60360924  0.02710537  0.08164321     0.00900
C138        C  0.58755954  0.03730970  0.06525478    -0.11200
C139        C  0.57220622  0.05573434  0.07247029     0.03400
C140        C  0.57336732  0.06424273  0.09593299    -0.10700
H141        H  0.61499872  0.02708051  0.11822595     0.09000
H142        H  0.58662507  0.03066490  0.04724090     0.06600
H143        H  0.56173909  0.07846558  0.10162446     0.06400
C144        C  0.58788229  0.04074529  0.91933842     0.03400
C145        C  0.60012566  0.02200543  0.92986443    -0.12700
C146        C  0.59720067  0.01677807  0.95392832     0.00900
C147        C  0.58228932  0.03119240  0.96788011    -0.11200
C148        C  0.56954704  0.04996462  0.95740423     0.03400
C149        C  0.57226207  0.05450681  0.93300253    -0.10700
H150        H  0.61218879  0.01146085  0.91919798     0.09000
H151        H  0.57969269  0.02708491  0.98646156     0.06600
H152        H  0.56234995  0.06873403  0.92472419     0.06400
C153        C  0.59009679  0.19393268  0.95154005     0.03400
C154        C  0.57582998  0.17976186  0.96652323    -0.12700
C155        C  0.56204733  0.16114584  0.95692418     0.00900
C156        C  0.56294758  0.15658333  0.93241016    -0.11200
C157        C  0.57735349  0.17027765  0.91744925     0.03400
C158        C  0.59065226  0.18881871  0.92718386    -0.10700
H159        H  0.57515889  0.18335336  0.98538307     0.09000
H160        H  0.55243195  0.14228536  0.92497285     0.06600
H161        H  0.60183600  0.19927642  0.91560895     0.06400
C162        C  0.58485679  0.19740274  0.07585267     0.03400
C163        C  0.57105787  0.18229956  0.06169001    -0.12700
C164        C  0.56494606  0.15961009  0.06990985     0.00900
C165        C  0.57360254  0.15174721  0.09206339    -0.11200
C166        C  0.58756581  0.16687991  0.10643115     0.03400
C167        C  0.59258244  0.18975796  0.09807450    -0.10700
H168        H  0.56469560  0.18835988  0.04459457     0.09000
H169        H  0.56931117  0.13402662  0.09797583     0.06600
H170        H  0.60286718  0.20193125  0.10886496     0.06400
C171        C  0.38220294  0.19273804  0.96337904     0.03400
C172        C  0.36249584  0.18148731  0.95348742    -0.12700
C173        C  0.36126592  0.15685235  0.95179668     0.00900
C174        C  0.38079511  0.14314636  0.95932966    -0.11200
C175        C  0.40138694  0.15430216  0.96837158     0.03400
C176        C  0.40199087  0.17922473  0.97015624    -0.10700
H177        H  0.34778801  0.19217641  0.94715188     0.09000
H178        H  0.38003855  0.12400818  0.95800308     0.06600
H179        H  0.41731859  0.18798115  0.97784453     0.06400
C180        C  0.37567383  0.02983674  0.93904761     0.03400
C181        C  0.39143361  0.04583055  0.95010990    -0.12700
C182        C  0.41093557  0.03716027  0.96327390     0.00900
C183        C  0.41439437  0.01248734  0.96529637    -0.11200
C184        C  0.39824341  0.99660824  0.95490007     0.03400
C185        C  0.37866550  0.00557309  0.94263581    -0.10700
H186        H  0.38906600  0.06473350  0.94779133     0.09000
H187        H  0.42946279  0.00569267  0.97515510     0.06600
H188        H  0.36550477  0.99342791  0.93554867     0.06400
C189        C  0.38877182  0.03342909  0.10658951     0.03400
C190        C  0.40438819  0.04744197  0.09303113    -0.12700
C191        C  0.41272055  0.03932180  0.07087783     0.00900
C192        C  0.40552412  0.01686484  0.06246678    -0.11200
C193        C  0.38996461  0.00281732  0.07599347     0.03400
C194        C  0.38119920  0.01162278  0.09740730    -0.10700
H195        H  0.41032535  0.06442021  0.09980112     0.09000
H196        H  0.41242561  0.01014620  0.04583200     0.06600
H197        H  0.36834399  0.00113297  0.10710081     0.06400
C198        C  0.38693736  0.19483157  0.06623328     0.03400
C199        C  0.36713648  0.18461161  0.07724091    -0.12700
C200        C  0.36689948  0.16075612  0.08404842     0.00900
C201        C  0.38544762  0.14584511  0.07644920    -0.11200
C202        C  0.40483159  0.15539582  0.06396054     0.03400
C203        C  0.40597860  0.18001454  0.05990059    -0.10700
H204        H  0.35203957  0.19565296  0.08174191     0.09000
H205        H  0.38551891  0.12727198  0.08123352     0.06600
H206        H  0.42164498  0.18744295  0.05165306     0.06400
O207        O  0.53193623  0.05775299  0.06189141    -0.75000
O208        O  0.55848006  0.07966988  0.04043045    -0.53900
C209        C  0.55313854  0.06469574  0.05685738     0.78700
O210        O  0.45042228  0.04962317  0.96908452    -0.59600
O211        O  0.42098851  0.06930694  0.98884752    -0.52600
C212        C  0.42845797  0.05333589  0.97426401     0.70800
O213        O  0.52939088  0.05705679  0.96537997    -0.74100
O214        O  0.55698599  0.07759066  0.98701313    -0.54700
C215        C  0.55089284  0.06246905  0.97088464     0.76800
O216        O  0.45235223  0.04983851  0.06201473    -0.59300
O217        O  0.42231777  0.06875085  0.04229988    -0.52400
C218        C  0.43020911  0.05355959  0.05745890     0.73400
Zr219      Zr  0.49105058  0.06496286  0.04903658     2.54700
O220        O  0.49525002  0.02212962  0.04633856    -0.79900
O221        O  0.49058165  0.06519921  0.09222379    -0.93300
Zr222      Zr  0.48935144  0.06613106  0.97883713     2.64700
O223        O  0.49447905  0.02329208  0.97859230    -0.98200
O224        O  0.48638556  0.06806136  0.93579657    -0.80300
O225        O  0.51354818  0.06677529  0.01341843    -0.83600
O226        O  0.46719498  0.06317397  0.01442740    -2.18400
O227        O  0.44553914  0.14674487  0.05980335    -0.67000
O228        O  0.41849564  0.12252315  0.04156308    -0.51600
C229        C  0.42414510  0.14019926  0.05495253     0.71700
O230        O  0.52293168  0.15039521  0.96669573    -0.59900
O231        O  0.55326813  0.13290427  0.98727448    -0.51900
C232        C  0.54510242  0.14743045  0.97156378     0.73500
O233        O  0.44284719  0.14767775  0.97241419    -0.71300
O234        O  0.41704581  0.12217303  0.99048573    -0.50000
C235        C  0.42172059  0.14026491  0.97740090     0.74900
O236        O  0.52540325  0.14885716  0.06222337    -0.66700
O237        O  0.55469783  0.13112870  0.04038865    -0.53900
C238        C  0.54732231  0.14547309  0.05663281     0.73300
Zr239      Zr  0.48614059  0.13471035  0.05023417     2.77500
O240        O  0.48576735  0.17785722  0.05135664    -0.97400
O241        O  0.48540933  0.13076340  0.09320700    -0.78200
Zr242      Zr  0.48426217  0.13598323  0.98010155     2.70100
O243        O  0.48336380  0.17907843  0.98211067    -0.79500
O244        O  0.48060041  0.13568287  0.93708308    -0.98600
Zr245      Zr  0.53431158  0.10374873  0.01347681     2.21500
Zr246      Zr  0.44154832  0.09682493  0.01542863     2.11100
O247        O  0.46228981  0.13381538  0.01565956    -2.47300
O248        O  0.50850646  0.13740502  0.01464637    -0.79300
O249        O  0.46517477  0.09815939  0.05065655    -0.71500
O250        O  0.51014587  0.10273061  0.97845469    -2.32400
O251        O  0.51176837  0.10154153  0.04935113    -2.28600
O252        O  0.46346306  0.09932839  0.97922075    -0.73200
H253        H  0.45819675  0.04860703  0.01452520     0.78800
H254        H  0.51988098  0.10360567  0.96439676     0.79900
H255        H  0.45145922  0.14705111  0.01604419     0.82100
H256        H  0.52201153  0.10225070  0.06308944     0.79700
H257        H  0.49865137  0.07967442  0.93102733     0.42700
H258        H  0.48215280  0.15252830  0.93246056     0.41700
H259        H  0.49635621  0.18331859  0.99319286     0.41400
H260        H  0.47572418  0.18254220  0.03772087     0.39300
H261        H  0.47407838  0.11770307  0.09623177     0.42400
H262        H  0.50307528  0.07665644  0.09688074     0.37200
H263        H  0.49765249  0.01896129  0.02924318     0.43300
H264        H  0.48038443  0.01698029  0.98694964     0.39800
H265        H  0.47624474  0.18204018  0.06550910     0.44700
H266        H  0.49705067  0.04955208  0.09681703     0.43400
H267        H  0.49208589  0.01862550  0.96182225     0.43500
H268        H  0.49543386  0.12816971  0.93139629     0.43900
C269        C  0.03873975  0.02939066  0.63623635     0.03400
C270        C  0.03376059  0.00520464  0.63490001    -0.12700
C271        C  0.01875446  0.99628800  0.61734500     0.00900
C272        C  0.00890834  0.01164717  0.60050646    -0.11200
C273        C  0.01378309  0.03609522  0.60164444     0.03400
C274        C  0.02837851  0.04499892  0.61985031    -0.10700
H275        H  0.04141915  0.99321859  0.64784425     0.09000
H276        H  0.99741948  0.00465562  0.58672495     0.06600
H277        H  0.03250949  0.06374092  0.62062562     0.06400
C278        C  0.87658634  0.03530314  0.61909299     0.03400
C279        C  0.88356052  0.01196066  0.62399845    -0.12700
C280        C  0.90603825  0.00332786  0.61770255     0.00900
C281        C  0.92091890  0.01778593  0.60373062    -0.11200
C282        C  0.91352958  0.04073456  0.59701806     0.03400
C283        C  0.89160922  0.04956071  0.60519134    -0.10700
H284        H  0.87142568  0.00034273  0.63329384     0.09000
H285        H  0.93815178  0.01137205  0.59811901     0.06600
H286        H  0.88618127  0.06734357  0.60042517     0.06400
C287        C  0.91472433  0.19517081  0.61854788     0.03400
C288        C  0.92746833  0.17942166  0.60396336    -0.12700
C289        C  0.91755265  0.15744712  0.59747339     0.00900
C290        C  0.89511735  0.15093078  0.60627862    -0.11200
C291        C  0.88158089  0.16690445  0.62005222     0.03400
C292        C  0.89169631  0.18900560  0.62569268    -0.10700
H293        H  0.94476189  0.18445317  0.59721627     0.09000
H294        H  0.88831434  0.13350743  0.60204810     0.06600
H295        H  0.88161545  0.20178830  0.63584242     0.06400
C296        C  0.03158027  0.19668103  0.61359847     0.03400
C297        C  0.04275880  0.18607675  0.63297428    -0.12700
C298        C  0.04544226  0.16148124  0.63460736     0.00900
C299        C  0.03366307  0.14700900  0.61790443    -0.11200
C300        C  0.02025532  0.15729871  0.59947612     0.03400
C301        C  0.01981196  0.18220603  0.59705827    -0.10700
H302        H  0.05026678  0.19732095  0.64667149     0.09000
H303        H  0.03576959  0.12795920  0.61838750     0.06600
H304        H  0.01061421  0.19022593  0.58221144     0.06400
C305        C  0.91967813  0.18581085  0.41024138     0.03400
C306        C  0.93173427  0.17105665  0.42628235    -0.12700
C307        C  0.91943911  0.15277292  0.43795205     0.00900
C308        C  0.89499561  0.14957201  0.43362048    -0.11200
C309        C  0.88296210  0.16418814  0.41736950     0.03400
C310        C  0.89551079  0.18215080  0.40585258    -0.10700
H311        H  0.95036743  0.17413541  0.43007204     0.09000
H312        H  0.88533101  0.13597691  0.44312045     0.06600
H313        H  0.88634735  0.19355662  0.39337454     0.06400
C314        C  0.88279154  0.04044771  0.41021259     0.03400
C315        C  0.89546746  0.05252774  0.42812454    -0.12700
C316        C  0.91717263  0.04350907  0.43672377     0.00900
C317        C  0.92643170  0.02240869  0.42705229    -0.11200
C318        C  0.91392252  0.01003528  0.40924104     0.03400
C319        C  0.89192803  0.01892185  0.40160509    -0.10700
H320        H  0.88863693  0.06902593  0.43522423     0.09000
H321        H  0.94314493  0.01550342  0.43362837     0.06600
H322        H  0.88193555  0.00901633  0.38851044     0.06400
C323        C  0.06384449  0.03737741  0.41724711     0.03400
C324        C  0.05964737  0.01313341  0.41485591    -0.12700
C325        C  0.04183278  0.00171292  0.42784342     0.00900
C326        C  0.02692346  0.01552015  0.44239313    -0.11200
C327        C  0.02990694  0.04031533  0.44380685     0.03400
C328        C  0.04853364  0.05120347  0.43123044    -0.10700
H329        H  0.07058969  0.00312623  0.40261713     0.09000
H330        H  0.01314775  0.00705574  0.45276450     0.06600
H331        H  0.05171708  0.07004855  0.43312933     0.06400
C332        C  0.03760620  0.19111523  0.42450606     0.03400
C333        C  0.02530907  0.17743480  0.44118765    -0.12700
C334        C  0.02751642  0.15256221  0.44108266     0.00900
C335        C  0.04222364  0.14150249  0.42412376    -0.11200
C336        C  0.05482834  0.15534991  0.40765216     0.03400
C337        C  0.05242901  0.17998781  0.40814895    -0.10700
H338        H  0.01372034  0.18605301  0.45388589     0.09000
H339        H  0.04405220  0.12239286  0.42392411     0.06600
H340        H  0.06191267  0.19068348  0.39529527     0.06400
O341        O  0.92334991  0.04888555  0.55744194    -0.75000
O342        O  0.94138578  0.07090258  0.58649297    -0.53900
C343        C  0.92717148  0.05438556  0.57929400     0.78700
O344        O  0.01901090  0.04877619  0.48289643    -0.59600
O345        O  0.00115758  0.07000282  0.45333338    -0.52600
C346        C  0.01571157  0.05403923  0.46098900     0.70800
O347        O  0.00977393  0.04586987  0.56143771    -0.74100
O348        O  0.99274856  0.07020401  0.58903305    -0.54700
C349        C  0.00485686  0.05183945  0.58291099     0.76800
O350        O  0.92359921  0.05114638  0.47752002    -0.59300
O351        O  0.94653946  0.07054104  0.45028790    -0.52400
C352        C  0.92994882  0.05590334  0.45606901     0.73400
Zr353      Zr  0.93529931  0.06226852  0.51806537     2.54700
O354        O  0.93795515  0.01923439  0.51706537    -0.79900
O355        O  0.89206024  0.06350350  0.51815924    -0.93300
Zr356      Zr  0.00535112  0.06195260  0.52160488     2.64700
O357        O  0.00796337  0.01886032  0.52137756    -0.98200
O358        O  0.04806099  0.06682687  0.52653328    -0.80300
O359        O  0.96926358  0.06239954  0.54291812    -0.83600
O360        O  0.97141109  0.06128154  0.49652852    -2.18400
O361        O  0.92433560  0.14310571  0.47804003    -0.67000
O362        O  0.94784561  0.12426541  0.45077748    -0.51600
C363        C  0.93130558  0.13898433  0.45670471     0.71700
O364        O  0.01362075  0.14767702  0.55955288    -0.59900
O365        O  0.99525279  0.12507353  0.58769249    -0.51900
C366        C  0.00890931  0.14228454  0.58116608     0.73500
O367        O  0.01835289  0.14447684  0.48091436    -0.71300
O368        O  0.00061925  0.12205304  0.45211964    -0.50000
C369        C  0.01477667  0.13860093  0.45913014     0.74900
O370        O  0.92499018  0.14698956  0.55770386    -0.66700
O371        O  0.94340762  0.12581768  0.58696098    -0.53900
C372        C  0.92947381  0.14237961  0.57964629     0.73300
Zr373      Zr  0.93563191  0.13202288  0.51824168     2.77500
O374        O  0.93525116  0.17516921  0.51678087    -0.97400
O375        O  0.89259549  0.12785207  0.51883923    -0.78200
Zr376      Zr  0.00598268  0.13165121  0.52033018     2.70100
O377        O  0.00862055  0.17465253  0.51847744    -0.79500
O378        O  0.04887580  0.12675692  0.52298010    -0.98600
Zr379      Zr  0.96890032  0.09779305  0.56605187     2.21500
Zr380      Zr  0.97274304  0.09650513  0.47310235     2.11100
O381        O  0.97158367  0.13206408  0.49618340    -2.47300
O382        O  0.97007816  0.13262870  0.54230021    -0.79300
O383        O  0.93622169  0.09707766  0.49470004    -0.71500
O384        O  0.00554652  0.09720579  0.54458676    -2.32400
O385        O  0.93407000  0.09732323  0.54163681    -2.28600
O386        O  0.00729602  0.09638431  0.49758526    -0.73200
H387        H  0.97172434  0.04733687  0.48658341     0.78800
H388        H  0.01897887  0.09722688  0.55529690     0.79900
H389        H  0.97195025  0.14585824  0.48609489     0.82100
H390        H  0.91986189  0.09749433  0.55124426     0.79700
H391        H  0.05392971  0.07099950  0.51053422     0.42700
H392        H  0.05318734  0.11772468  0.50854498     0.41700
H393        H  0.99339996  0.17968678  0.51124416     0.41400
H394        H  0.94620281  0.18016488  0.52961231     0.39300
H395        H  0.88655672  0.14420106  0.51685288     0.42400
H396        H  0.88714903  0.04699522  0.51477026     0.37200
H397        H  0.95001027  0.01528883  0.52924407     0.43300
H398        H  0.99704952  0.01369122  0.50858709     0.39800
H399        H  0.94378736  0.17926544  0.50201145     0.44700
H400        H  0.88776684  0.07241630  0.50366757     0.43400
H401        H  0.02406907  0.01522326  0.51533821     0.43500
H402        H  0.05530936  0.14283257  0.52018355     0.43900
C403        C  0.99888571  0.36545575  0.30428714     0.03800
S404        S  0.97120347  0.35166447  0.31220141    -0.10200
C405        C  0.98534576  0.33250024  0.33315018    -0.01400
C406        C  0.00822836  0.33662866  0.33891537    -0.01400
S407        S  0.02442243  0.35831461  0.32221413    -0.10200
C408        C  0.01453211  0.40447853  0.24901483    -0.01300
C409        C  0.99065542  0.40565247  0.24853992    -0.01400
S410        S  0.97389947  0.38996769  0.27031284    -0.10200
C411        C  0.00031406  0.38005305  0.28535845     0.03800
S412        S  0.02847165  0.38968510  0.27353616    -0.10200
C413        C  0.22028815  0.09616000  0.27116136     0.03800
S414        S  0.21649948  0.07245742  0.29213677    -0.10200
C415        C  0.19123884  0.08650081  0.30541806    -0.01400
C416        C  0.18485335  0.10817880  0.29777306    -0.01400
S417        S  0.20161646  0.12183924  0.27464192    -0.10200
C418        C  0.26429122  0.10401434  0.21822287    -0.01300
C419        C  0.27122951  0.08256337  0.22596104    -0.01400
S420        S  0.25528985  0.06922444  0.24996235    -0.10200
C421        C  0.23649193  0.09480840  0.25356699     0.03800
S422        S  0.23999007  0.11849988  0.23257158    -0.10200
C423        C  0.29335708  0.40720944  0.00595597     0.03800
S424        S  0.28032954  0.41926299  0.03245344    -0.10200
C425        C  0.25508945  0.43047956  0.01657195    -0.01400
C426        C  0.25412495  0.42750693  0.99287099    -0.01400
S427        S  0.27926649  0.41469304  0.97822384    -0.10200
C428        C  0.34133001  0.35866448  0.99587069    -0.01300
C429        C  0.33941698  0.35780752  0.01968211    -0.01400
S430        S  0.32378251  0.38125829  0.03448387    -0.10200
C431        C  0.31223330  0.39240342  0.00683301     0.03800
S432        S  0.32606399  0.38165422  0.98020170    -0.10200
C433        C  0.67180509  0.11611757  0.30685415     0.03800
S434        S  0.66209777  0.14335959  0.29341566    -0.10200
C435        C  0.64619437  0.12799030  0.27047248    -0.01400
C436        C  0.64314162  0.10431216  0.27234499    -0.01400
S437        S  0.65793843  0.08930483  0.29628915    -0.10200
C438        C  0.72567680  0.10365270  0.34911967    -0.01300
C439        C  0.72420047  0.12740368  0.35147046    -0.01400
S440        S  0.70093702  0.14275708  0.33608498    -0.10200
C441        C  0.68914753  0.11579637  0.32356572     0.03800
S442        S  0.70225551  0.08846652  0.33363774    -0.10200
C443        C  0.99912436  0.83591998  0.29489640     0.03800
S444        S  0.02423609  0.84543079  0.31231124    -0.10200
C445        C  0.00657857  0.86557833  0.32963188    -0.01400
C446        C  0.98343679  0.86829759  0.32415169    -0.01400
S447        S  0.97097659  0.84979940  0.30139750    -0.10200
C448        C  0.99252982  0.78741139  0.24529523    -0.01300
C449        C  0.01641503  0.78903094  0.24587902    -0.01400
S450        S  0.02964917  0.80851782  0.26749626    -0.10200
C451        C  0.00115689  0.81912619  0.27776393     0.03800
S452        S  0.97523609  0.80626825  0.26415389    -0.10200
C453        C  0.18006156  0.09006810  0.79957441     0.03800
S454        S  0.16995519  0.06348979  0.78494389    -0.10200
C455        C  0.15049013  0.07977481  0.76573240    -0.01400
C456        C  0.14966317  0.10350709  0.76770837    -0.01400
S457        S  0.16675810  0.11762200  0.79041335    -0.10200
C458        C  0.22818743  0.10143465  0.84838462    -0.01300
C459        C  0.23139848  0.07804982  0.84514797    -0.01400
S460        S  0.21223242  0.06271566  0.82477939    -0.10200
C461        C  0.19701279  0.08961796  0.81659924     0.03800
S462        S  0.20554394  0.11629640  0.83191610    -0.10200
C463        C  0.99494161  0.40079400  0.72778990     0.03800
S464        S  0.96875038  0.40904972  0.74401251    -0.10200
C465        C  0.98528651  0.42701981  0.76426534    -0.01400
C466        C  0.00872029  0.43021125  0.76073643    -0.01400
S467        S  0.02219590  0.41575852  0.73568782    -0.10200
C468        C  0.00405156  0.35037980  0.68064181    -0.01300
C469        C  0.98065370  0.34798018  0.68497849    -0.01400
S470        S  0.96642930  0.36890489  0.70407791    -0.10200
C471        C  0.99397407  0.38371015  0.71091716     0.03800
S472        S  0.01993609  0.37411221  0.69489567    -0.10200
C473        C  0.30380957  0.80864516  0.00836653     0.03800
S474        S  0.31448612  0.81975918  0.03639371    -0.10200
C475        C  0.32974198  0.84394941  0.02257842    -0.01400
C476        C  0.33171702  0.84406731  0.99882232    -0.01400
S477        S  0.31556428  0.82235249  0.98203147    -0.10200
C478        C  0.25003173  0.76685201  0.99500922    -0.01300
C479        C  0.25356091  0.76159999  0.01808077    -0.01400
S480        S  0.27813974  0.77518351  0.03321576    -0.10200
C481        C  0.28709264  0.79141923  0.00724271     0.03800
S482        S  0.27190410  0.78444331  0.97996677    -0.10200
C483        C  0.70505101  0.37516639  0.01703305     0.03800
S484        S  0.69150621  0.36411783  0.04379663    -0.10200
C485        C  0.67497703  0.34180529  0.02803054    -0.01400
C486        C  0.67752207  0.34043625  0.00432431    -0.01400
S487        S  0.69467195  0.36265517  0.98948481    -0.10200
C488        C  0.75797697  0.41885903  0.00569709    -0.01300
C489        C  0.75977944  0.41631698  0.02938155    -0.01400
S490        S  0.73667182  0.40069495  0.04479344    -0.10200
C491        C  0.72267323  0.39154391  0.01747733     0.03800
S492        S  0.73402437  0.40440626  0.99051954    -0.10200
C493        C  0.97067885  0.79714633  0.73321691     0.03800
S494        S  0.99884652  0.78876424  0.74604049    -0.10200
C495        C  0.98509229  0.77281833  0.76989913    -0.01400
C496        C  0.96128238  0.77006575  0.76943200    -0.01400
S497        S  0.94437305  0.78605923  0.74764183    -0.10200
C498        C  0.95680121  0.84447096  0.68433057    -0.01300
C499        C  0.98010500  0.84091083  0.68007805    -0.01400
S500        S  0.99558503  0.81901730  0.69720564    -0.10200
C501        C  0.96945199  0.81148479  0.71396233     0.03800
S502        S  0.94186160  0.82447501  0.70412269    -0.10200
C503        C  0.66560775  0.10667747  0.72426720     0.03800
S504        S  0.65462812  0.13349245  0.73759658    -0.10200
C505        C  0.63934796  0.11745860  0.76040742    -0.01400
C506        C  0.63865570  0.09357616  0.75920421    -0.01400
S507        S  0.65230531  0.07947726  0.73411331    -0.10200
C508        C  0.72040774  0.09449039  0.68368128    -0.01300
C509        C  0.72132149  0.11830320  0.68467880    -0.01400
S510        S  0.69764530  0.13391738  0.69912249    -0.10200
C511        C  0.68354106  0.10680011  0.70830639     0.03800
S512        S  0.69528066  0.07965766  0.69622520    -0.10200
C513        C  0.73185755  0.85240200  0.02612330     0.03800
S514        S  0.72060576  0.86484146  0.99889407    -0.10200
C515        C  0.70126857  0.88480520  0.01431742    -0.01400
C516        C  0.70098268  0.88432892  0.03815622    -0.01400
S517        S  0.71839226  0.86246657  0.05329287    -0.10200
C518        C  0.78381575  0.80765362  0.03833623    -0.01300
C519        C  0.78750067  0.81233720  0.01520489    -0.01400
S520        S  0.76623007  0.82995506  0.99951099    -0.10200
C521        C  0.74998198  0.83664141  0.02618108     0.03800
S522        S  0.75932148  0.82183887  0.05295032    -0.10200
C523        C  0.03377314  0.21682710  0.42172153    -0.19600
C524        C  0.01305748  0.22517001  0.41037643     0.36700
C525        C  0.01266951  0.24806682  0.40111708    -0.25500
C526        C  0.03262653  0.26279017  0.40243811     0.03100
C527        C  0.05276593  0.25518338  0.41522539     0.27900
C528        C  0.05317233  0.23226301  0.42475904    -0.24700
N529        N  0.99291705  0.21016287  0.40637525    -0.82000
H530        H  0.99726408  0.25391182  0.39137054     0.13700
C531        C  0.03239078  0.28481251  0.38822866     0.03100
N532        N  0.07325860  0.26998456  0.41787975    -0.80600
H533        H  0.06927620  0.22589251  0.43315903     0.18500
C534        C  0.01862807  0.30381889  0.39636505    -0.25500
C535        C  0.01247562  0.32254806  0.38130868     0.36600
C536        C  0.02039549  0.32230860  0.35745820    -0.19500
C537        C  0.03621876  0.30460532  0.35009170    -0.24700
C538        C  0.04193027  0.28554176  0.36496400     0.27900
H539        H  0.01135106  0.30335929  0.41414658     0.13700
N540        N  0.99755148  0.34103613  0.39058060    -0.82000
H541        H  0.04217755  0.30423893  0.33182391     0.18500
N542        N  0.05571735  0.26646633  0.35509721    -0.80600
H543        H  0.98112484  0.33355221  0.39485325     0.34200
H544        H  0.99449049  0.35428678  0.37806157     0.38700
H545        H  0.07258978  0.27315176  0.35122903     0.34100
H546        H  0.05818193  0.25268868  0.36713413     0.30800
H547        H  0.06795086  0.28568621  0.42618672     0.34100
H548        H  0.07968558  0.27421568  0.40103824     0.30800
H549        H  0.98660456  0.20439206  0.42279158     0.38700
H550        H  0.99830903  0.19540775  0.39652992     0.34200
C551        C  0.07100212  0.14515310  0.38963889    -0.19600
C552        C  0.09197305  0.13323082  0.39624143     0.36700
C553        C  0.10959110  0.12911909  0.37906261    -0.25500
C554        C  0.10675097  0.13689777  0.35555272     0.03100
C555        C  0.08523390  0.14770353  0.34873450     0.27900
C556        C  0.06753630  0.15154148  0.36581221    -0.24700
N557        N  0.09570636  0.12621161  0.42045217    -0.82000
H558        H  0.12586078  0.12028036  0.38412528     0.13700
C559        C  0.12639791  0.13334818  0.33831597     0.03100
N560        N  0.08179750  0.15555396  0.32473658    -0.80600
H561        H  0.05140144  0.16076993  0.36082462     0.18500
C562        C  0.12208942  0.12068098  0.31731517    -0.25500
C563        C  0.14068112  0.11433931  0.30213450     0.36600
C564        C  0.16420915  0.12074730  0.30817081    -0.19500
C565        C  0.16823910  0.13550003  0.32779456    -0.24700
C566        C  0.14954504  0.14177521  0.34306197     0.27900
H567        H  0.10426164  0.11472090  0.31317037     0.13700
N568        N  0.13507420  0.10107252  0.28107859    -0.82000
H569        H  0.18628761  0.14055861  0.33221980     0.18500
N570        N  0.15405563  0.15601571  0.36374364    -0.80600
H571        H  0.12765134  0.08496483  0.28632022     0.34200
H572        H  0.15024448  0.09724556  0.27115762     0.38700
H573        H  0.17204373  0.16053343  0.36479089     0.34100
H574        H  0.14465870  0.17186450  0.36174801     0.30800
H575        H  0.06497255  0.16313107  0.32265833     0.34100
H576        H  0.09417045  0.16896097  0.32144625     0.30800
H577        H  0.09693645  0.14160982  0.43071558     0.38700
H578        H  0.11193606  0.11737127  0.42224169     0.34200
C579        C  0.17784562  0.07443939  0.32465459    -0.19600
C580        C  0.16111447  0.05630748  0.31981722     0.36700
C581        C  0.14443220  0.05030812  0.33723830    -0.25500
C582        C  0.14381971  0.06217343  0.35909798     0.03100
C583        C  0.16181516  0.07856236  0.36475413     0.27900
C584        C  0.17886899  0.08428815  0.34753612    -0.24700
N585        N  0.16006141  0.04404648  0.29744834    -0.82000
H586        H  0.13108097  0.03703854  0.33326164     0.13700
C587        C  0.12356982  0.05799924  0.37531400     0.03100
N588        N  0.16191193  0.09026869  0.38740662    -0.80600
H589        H  0.19206536  0.09773650  0.35139472     0.18500
C590        C  0.12700201  0.04425743  0.39566122    -0.25500
C591        C  0.10782719  0.03859785  0.41051831     0.36600
C592        C  0.08488843  0.04726579  0.40511029    -0.19500
C593        C  0.08166173  0.06191994  0.38538406    -0.24700
C594        C  0.10072244  0.06699237  0.37011736     0.27900
H595        H  0.14452850  0.03727574  0.39947882     0.13700
N596        N  0.11127804  0.02331477  0.43059809    -0.82000
H597        H  0.06396338  0.06814219  0.38107404     0.18500
N598        N  0.09688897  0.08090293  0.34916186    -0.80600
H599        H  0.12907758  0.01817480  0.43194697     0.34200
H600        H  0.10739868  0.03313153  0.44584623     0.38700
H601        H  0.07934051  0.08693836  0.34842626     0.34100
H602        H  0.09922182  0.06986004  0.33445831     0.30800
H603        H  0.17567376  0.10268408  0.38829076     0.34100
H604        H  0.16555881  0.07752324  0.40031720     0.30800
H605        H  0.17255533  0.05047093  0.28546268     0.38700
H606        H  0.14336538  0.04707299  0.28993233     0.34200
C607        C  0.03845144  0.97568089  0.42446862    -0.19600
C608        C  0.05821537  0.96048010  0.42092108     0.36700
C609        C  0.05491140  0.93864605  0.40939092    -0.25500
C610        C  0.03214268  0.93106328  0.40306425     0.03100
C611        C  0.01221768  0.94397656  0.41089257     0.27900
C612        C  0.01548510  0.96652492  0.42104512    -0.24700
N613        N  0.08164987  0.96782293  0.42797757    -0.82000
H614        H  0.07016437  0.92819539  0.40409407     0.13700
C615        C  0.02945140  0.91312140  0.38409141     0.03100
N616        N  0.98879599  0.93453346  0.40742383    -0.80600
H617        H  0.00011914  0.97752971  0.42455449     0.18500
C618        C  0.02602244  0.88916446  0.38959612    -0.25500
C619        C  0.02057863  0.87265477  0.37159383     0.36600
C620        C  0.01806308  0.88056380  0.34799472    -0.19500
C621        C  0.02308624  0.90416162  0.34240121    -0.24700
C622        C  0.02873142  0.92056358  0.36022302     0.27900
H623        H  0.02687508  0.88354821  0.40793638     0.13700
N624        N  0.01649658  0.84819009  0.37725484    -0.82000
H625        H  0.02125336  0.91004850  0.32420975     0.18500
N626        N  0.03307778  0.94495254  0.35429855    -0.80600
H627        H  0.01866476  0.84534961  0.39544523     0.34200
H628        H  0.02962232  0.83822985  0.36873285     0.38700
H629        H  0.03238523  0.94737654  0.33593324     0.34100
H630        H  0.01925492  0.95506438  0.36142830     0.30800
H631        H  0.97599110  0.94616612  0.41411414     0.34100
H632        H  0.98596989  0.93312454  0.38919961     0.30800
H633        H  0.08159802  0.96971447  0.44642170     0.38700
H634        H  0.09413362  0.95469460  0.42398693     0.34200
C635        C  0.85987576  0.04976185  0.40039380    -0.19600
C636        C  0.85477125  0.04841467  0.37586856     0.36700
C637        C  0.83218105  0.05451279  0.36743196    -0.25500
C638        C  0.81494074  0.06436083  0.38239979     0.03100
C639        C  0.82016265  0.06668348  0.40688342     0.27900
C640        C  0.84238647  0.05897707  0.41565158    -0.24700
N641        N  0.87269712  0.04146623  0.35922823    -0.82000
H642        H  0.82822374  0.05149248  0.34890716     0.13700
C643        C  0.79184051  0.07255165  0.37209930     0.03100
N644        N  0.80288561  0.07667225  0.42279049    -0.80600
H645        H  0.84598293  0.06004064  0.43449447     0.18500
C646        C  0.77026187  0.06469253  0.38204540    -0.25500
C647        C  0.74818865  0.07374631  0.37428718     0.36600
C648        C  0.74771369  0.09061776  0.35592625    -0.19500
C649        C  0.76901334  0.09695329  0.34479255    -0.24700
C650        C  0.79092515  0.08873224  0.35288246     0.27900
H651        H  0.77068879  0.05185143  0.39628857     0.13700
N652        N  0.72641518  0.06614108  0.38515546    -0.82000
H653        H  0.76867056  0.10928749  0.33010457     0.18500
N654        N  0.81179209  0.09819000  0.34181726    -0.80600
H655        H  0.72986212  0.05358938  0.39832754     0.34200
H656        H  0.71886315  0.08077025  0.39365865     0.38700
H657        H  0.82010002  0.08503266  0.33184461     0.34100
H658        H  0.82351011  0.10443274  0.35475137     0.30800
H659        H  0.80950354  0.07716042  0.44011611     0.34100
H660        H  0.79994412  0.09423801  0.41779840     0.30800
H661        H  0.87506882  0.05533710  0.34720079     0.38700
H662        H  0.86646167  0.02675384  0.34979601     0.34200
C663        C  0.92343435  0.98807906  0.39773761    -0.19600
C664        C  0.94645081  0.98719944  0.38779066     0.36700
C665        C  0.95336285  0.96722909  0.37442559    -0.25500
C666        C  0.93803655  0.94782336  0.37103345     0.03100
C667        C  0.91497191  0.94869851  0.38105111     0.27900
C668        C  0.90817770  0.96858754  0.39441833    -0.24700
N669        N  0.96260069  0.00669247  0.39088913    -0.82000
H670        H  0.97099088  0.96667815  0.36674089     0.13700
C671        C  0.94711712  0.92663069  0.35795505     0.03100
N672        N  0.89773652  0.93016456  0.37761932    -0.80600
H673        H  0.89045803  0.96901480  0.40190779     0.18500
C674        C  0.94980776  0.90505498  0.37003130    -0.25500
C675        C  0.96010280  0.88520262  0.35904800     0.36600
C676        C  0.96851251  0.88706853  0.33545088    -0.19500
C677        C  0.96498527  0.90834556  0.32307183    -0.24700
C678        C  0.95430081  0.92811083  0.33404539     0.27900
H679        H  0.94424712  0.90377747  0.38837632     0.13700
N680        N  0.96208159  0.86369688  0.37252305    -0.82000
H681        H  0.97137569  0.90977737  0.30501384     0.18500
N682        N  0.95104979  0.94981321  0.32116272    -0.80600
H683        H  0.94488147  0.85840603  0.37706316     0.34200
H684        H  0.96908821  0.84994623  0.36230930     0.38700
H685        H  0.95738258  0.94806554  0.30382715     0.34100
H686        H  0.93277308  0.95287842  0.31985957     0.30800
H687        H  0.88310674  0.93759437  0.36893148     0.34100
H688        H  0.90401844  0.91691399  0.36635555     0.30800
H689        H  0.95544845  0.02130594  0.38203801     0.38700
H690        H  0.97894554  0.00302928  0.38288484     0.34200
C691        C  0.97270057  0.31098029  0.34161964    -0.19600
C692        C  0.95289597  0.31227665  0.35678931     0.36700
C693        C  0.94400504  0.29133113  0.36701841    -0.25500
C694        C  0.95456390  0.26920125  0.36234752     0.03100
C695        C  0.97364312  0.26802468  0.34598043     0.27900
C696        C  0.98219730  0.28878519  0.33574028    -0.24700
N697        N  0.94265080  0.33485465  0.36263607    -0.82000
H698        H  0.92901753  0.29230037  0.37901199     0.13700
C699        C  0.94607469  0.24780534  0.37522413     0.03100
N700        N  0.98542524  0.24628789  0.33997545    -0.80600
H701        H  0.99704280  0.28767323  0.32357102     0.18500
C702        C  0.93880983  0.22791356  0.36214988    -0.25500
C703        C  0.93190278  0.20699620  0.37343606     0.36600
C704        C  0.93136296  0.20594303  0.39832432    -0.19500
C705        C  0.93794793  0.22591508  0.41161053    -0.24700
C706        C  0.94512946  0.24698679  0.40034227     0.27900
H707        H  0.93786863  0.22872104  0.34301021     0.13700
N708        N  0.92496474  0.18686090  0.35955957    -0.82000
H709        H  0.93657550  0.22532792  0.43076651     0.18500
N710        N  0.95041932  0.26771911  0.41428206    -0.80600
H711        H  0.93921926  0.18224568  0.34861545     0.34200
H712        H  0.91074722  0.19187304  0.34872156     0.38700
H713        H  0.94864506  0.26410789  0.43237018     0.34100
H714        H  0.96814269  0.27236197  0.41156996     0.30800
H715        H  0.99024772  0.23730177  0.35539865     0.34100
H716        H  0.97402159  0.23565045  0.33000325     0.30800
H717        H  0.93474929  0.34153572  0.34726561     0.38700
H718        H  0.92897840  0.33279956  0.37499116     0.34200
C719        C  0.85730453  0.16118019  0.41190007    -0.19600
C720        C  0.84811125  0.13922240  0.40422449     0.36700
C721        C  0.82431553  0.13783601  0.39680811    -0.25500
C722        C  0.80982513  0.15799945  0.39599168     0.03100
C723        C  0.81873123  0.17988073  0.40405098     0.27900
C724        C  0.84236758  0.18120834  0.41209970    -0.24700
N725        N  0.86319482  0.11870559  0.40296375    -0.82000
H726        H  0.81716416  0.12109707  0.39084775     0.13700
C727        C  0.78579252  0.15562499  0.38555160     0.03100
N728        N  0.80372898  0.20050050  0.40435460    -0.80600
H729        H  0.84937164  0.19806549  0.41812047     0.18500
C730        C  0.76746262  0.14612080  0.39937736    -0.25500
C731        C  0.74601724  0.13873816  0.38886559     0.36600
C732        C  0.74292487  0.14110832  0.36415129    -0.19500
C733        C  0.76038206  0.15260997  0.35073839    -0.24700
C734        C  0.78214103  0.15927109  0.36106839     0.27900
H735        H  0.77045827  0.14320293  0.41813320     0.13700
N736        N  0.72783646  0.12772354  0.40288857    -0.82000
H737        H  0.75797789  0.15417151  0.33173748     0.18500
N738        N  0.80126873  0.16768148  0.34645852    -0.80600
H739        H  0.73296923  0.12699148  0.42069931     0.34200
H740        H  0.71278370  0.13854379  0.40209951     0.38700
H741        H  0.79610274  0.16809419  0.32864736     0.34100
H742        H  0.80488366  0.18517139  0.35129973     0.30800
H743        H  0.81294109  0.21506922  0.41122276     0.34100
H744        H  0.79940286  0.20476272  0.38686959     0.30800
H745        H  0.87650822  0.12221481  0.39054830     0.38700
H746        H  0.85374230  0.10418688  0.39638613     0.34200
C747        C  0.01701908  0.33241037  0.66637803    -0.19600
C748        C  0.02140455  0.33533279  0.64180219     0.36700
C749        C  0.02748726  0.31543879  0.62800248    -0.25500
C750        C  0.02918856  0.29289951  0.63827444     0.03100
C751        C  0.02633562  0.29047177  0.66303768     0.27900
C752        C  0.02086908  0.31024929  0.67681987    -0.24700
N753        N  0.01947838  0.35794300  0.63026710    -0.82000
H754        H  0.02989839  0.31740406  0.60905036     0.13700
C755        C  0.03146072  0.27142046  0.62331984     0.03100
N756        N  0.02742471  0.26782537  0.67443793    -0.80600
H757        H  0.01767026  0.30791940  0.69562283     0.18500
C758        C  0.05309126  0.25927420  0.62306874    -0.25500
C759        C  0.05395648  0.23523414  0.61673994     0.36600
C760        C  0.03254221  0.22297045  0.61171503    -0.19500
C761        C  0.01152884  0.23598883  0.60874879    -0.24700
C762        C  0.01096535  0.26035595  0.61407905     0.27900
H763        H  0.06895890  0.26807123  0.62951201     0.13700
N764        N  0.07625361  0.22279269  0.61682014    -0.82000
H765        H  0.99522695  0.22689870  0.60406407     0.18500
N766        N  0.98943220  0.27368409  0.61137612    -0.80600
H767        H  0.09019828  0.23426638  0.62112825     0.34200
H768        H  0.07936234  0.21684964  0.59953211     0.38700
H769        H  0.97580898  0.26292144  0.60479087     0.34100
H770        H  0.98429387  0.27924447  0.62822546     0.30800
H771        H  0.04421936  0.26051113  0.67150517     0.34100
H772        H  0.01464956  0.25673067  0.66679262     0.30800
H773        H  0.01467267  0.37128754  0.64215743     0.38700
H774        H  0.00597646  0.35681451  0.61759086     0.34200
C775        C  0.06193198  0.15214965  0.65316677    -0.19600
C776        C  0.05667376  0.13218563  0.66710795     0.36700
C777        C  0.07165579  0.12611536  0.68613722    -0.25500
C778        C  0.09134399  0.14024394  0.69231882     0.03100
C779        C  0.09684879  0.16003608  0.67807414     0.27900
C780        C  0.08273541  0.16508895  0.65823829    -0.24700
N781        N  0.03588766  0.11837542  0.66245433    -0.82000
H782        H  0.06757146  0.11051732  0.69642631     0.13700
C783        C  0.10640286  0.13377635  0.71317239     0.03100
N784        N  0.11626884  0.17545925  0.68418696    -0.80600
H785        H  0.08754246  0.17999683  0.64717690     0.18500
C786        C  0.13125776  0.13338989  0.71077234    -0.25500
C787        C  0.14606673  0.12619026  0.72936088     0.36600
C788        C  0.13576407  0.11801782  0.75070323    -0.19500
C789        C  0.11107328  0.11943965  0.75364829    -0.24700
C790        C  0.09637171  0.12755743  0.73524240     0.27900
H791        H  0.13935803  0.13790784  0.69397412     0.13700
N792        N  0.17133962  0.12667282  0.72557415    -0.82000
H793        H  0.10308908  0.11324832  0.76997957     0.18500
N794        N  0.07127534  0.12931156  0.73902015    -0.80600
H795        H  0.17530831  0.11515966  0.71159365     0.34200
H796        H  0.18071848  0.12073228  0.74037488     0.38700
H797        H  0.06496265  0.11253561  0.74368395     0.34100
H798        H  0.06840838  0.14071338  0.75336735     0.30800
H799        H  0.11792794  0.18916629  0.67185595     0.34100
H800        H  0.11220923  0.18340862  0.70044516     0.30800
H801        H  0.04143699  0.10122472  0.65829388     0.38700
H802        H  0.02569954  0.11774729  0.67792506     0.34200
C803        C  0.92464100  0.21839513  0.62654857    -0.19600
C804        C  0.94688679  0.22014884  0.63806597     0.36700
C805        C  0.95396371  0.24199519  0.64793927    -0.25500
C806        C  0.93908101  0.26202775  0.64713486     0.03100
C807        C  0.91699821  0.26030350  0.63538013     0.27900
C808        C  0.91024923  0.23871006  0.62492579    -0.24700
N809        N  0.96192649  0.19968162  0.64027445    -0.82000
H810        H  0.97117778  0.24338431  0.65644495     0.13700
C811        C  0.94719188  0.28481417  0.65801714     0.03100
N812        N  0.90122763  0.28032776  0.63457750    -0.80600
H813        H  0.89323987  0.23752698  0.61597766     0.18500
C814        C  0.94728703  0.30556822  0.64425723    -0.25500
C815        C  0.95702820  0.32678271  0.65285725     0.36600
C816        C  0.96680013  0.32740133  0.67597122    -0.19500
C817        C  0.96547687  0.30713402  0.69024284    -0.24700
C818        C  0.95595083  0.28580351  0.68149117     0.27900
H819        H  0.94071474  0.30504059  0.62619564     0.13700
N820        N  0.95672755  0.34715221  0.63760390    -0.82000
H821        H  0.97281977  0.30774050  0.70801125     0.18500
N822        N  0.95540708  0.26508132  0.69624631    -0.80600
H823        H  0.96684014  0.34309392  0.62261514     0.34200
H824        H  0.96455323  0.36187323  0.64566167     0.38700
H825        H  0.96276458  0.26871266  0.71289880     0.34100
H826        H  0.93758491  0.26071830  0.69906644     0.30800
H827        H  0.88571473  0.27614908  0.62524152     0.34100
H828        H  0.89608993  0.28414045  0.65198123     0.30800
H829        H  0.95316035  0.18746745  0.65108375     0.38700
H830        H  0.97778203  0.20406011  0.64892544     0.34200
C831        C  0.85696009  0.16122693  0.62878070    -0.19600
C832        C  0.84042170  0.14785299  0.61535157     0.36700
C833        C  0.81777204  0.14310485  0.62480508    -0.25500
C834        C  0.80995962  0.15334475  0.64622799     0.03100
C835        C  0.82585126  0.16839587  0.65856716     0.27900
C836        C  0.84934663  0.17078977  0.65060130    -0.24700
N837        N  0.84621499  0.13967199  0.59190254    -0.82000
H838        H  0.80608218  0.13162418  0.61494588     0.13700
C839        C  0.78576081  0.14739901  0.65598710     0.03100
N840        N  0.81801069  0.18181244  0.67880926    -0.80600
H841        H  0.86161392  0.18075970  0.66151542     0.18500
C842        C  0.78291446  0.14418109  0.68062382    -0.25500
C843        C  0.76099762  0.13773085  0.69041079     0.36600
C844        C  0.74212752  0.13150736  0.67538726    -0.19500
C845        C  0.74436015  0.13514331  0.65093636    -0.24700
C846        C  0.76557105  0.14410581  0.64117964     0.27900
H847        H  0.79784335  0.14607035  0.69256420     0.13700
N848        N  0.75808138  0.13720073  0.71563513    -0.82000
H849        H  0.72950874  0.13087215  0.63944896     0.18500
N850        N  0.76652144  0.14995197  0.61640798    -0.80600
H851        H  0.77162675  0.12683280  0.72288801     0.34200
H852        H  0.76055570  0.15444503  0.72196787     0.38700
H853        H  0.75021604  0.14652222  0.60818023     0.34100
H854        H  0.76940321  0.16820115  0.61514554     0.30800
H855        H  0.83180157  0.19216847  0.68569482     0.34100
H856        H  0.80489053  0.19355723  0.67297536     0.30800
H857        H  0.84856391  0.15460696  0.58122313     0.38700
H858        H  0.83212851  0.13007042  0.58452902     0.34200
C859        C  0.91349504  0.97968801  0.62726766    -0.19600
C860        C  0.92412115  0.96187877  0.61316502     0.36700
C861        C  0.92933972  0.93957596  0.62328397    -0.25500
C862        C  0.92375096  0.93444902  0.64706753     0.03100
C863        C  0.91312711  0.95226580  0.66109065     0.27900
C864        C  0.90848994  0.97460565  0.65118846    -0.24700
N865        N  0.92940211  0.96634086  0.58866377    -0.82000
H866        H  0.93796527  0.92613525  0.61259798     0.13700
C867        C  0.93005471  0.91083856  0.65744004     0.03100
N868        N  0.90684020  0.94755237  0.68533780    -0.80600
H869        H  0.90064997  0.98820081  0.66228461     0.18500
C870        C  0.94364016  0.91001250  0.67834816    -0.25500
C871        C  0.95084057  0.88836014  0.68826655     0.36600
C872        C  0.94494348  0.86693195  0.67680638    -0.19500
C873        C  0.93063187  0.86751444  0.65641777    -0.24700
C874        C  0.92302434  0.88927923  0.64665843     0.27900
H875        H  0.94923612  0.92641223  0.68665414     0.13700
N876        N  0.96501203  0.88798328  0.70949304    -0.82000
H877        H  0.92610987  0.85101783  0.64766256     0.18500
N878        N  0.90835706  0.88958813  0.62578170    -0.80600
H879        H  0.96819305  0.90519865  0.71558462     0.34200
H880        H  0.95512311  0.87944526  0.72262156     0.38700
H881        H  0.90488542  0.87233049  0.61997275     0.34100
H882        H  0.89199949  0.89698352  0.63050995     0.30800
H883        H  0.89929563  0.96253112  0.69325252     0.34100
H884        H  0.89371724  0.93444586  0.68524214     0.30800
H885        H  0.91327041  0.96893645  0.57983099     0.38700
H886        H  0.93740914  0.95153124  0.58088939     0.34200
C887        C  0.85340820  0.04406892  0.62862735    -0.19600
C888        C  0.84612121  0.03808666  0.65185931     0.36700
C889        C  0.82283595  0.04293536  0.65911292    -0.25500
C890        C  0.80700427  0.05570552  0.64473175     0.03100
C891        C  0.81499827  0.06368617  0.62229742     0.27900
C892        C  0.83785706  0.05725295  0.61425046    -0.24700
N893        N  0.86255880  0.02741167  0.66822648    -0.82000
H894        H  0.81716796  0.03704609  0.67647339     0.13700
C895        C  0.78333379  0.06252774  0.65487372     0.03100
N896        N  0.79989582  0.07813665  0.60772197    -0.80600
H897        H  0.84337358  0.06225167  0.59656347     0.18500
C898        C  0.78277147  0.07081378  0.67842591    -0.25500
C899        C  0.76167536  0.07817583  0.68911393     0.36600
C900        C  0.74097230  0.08037714  0.67516344    -0.19500
C901        C  0.74092203  0.07127323  0.65202313    -0.24700
C902        C  0.76148843  0.06102533  0.64219720     0.27900
H903        H  0.79892340  0.07158026  0.68886824     0.13700
N904        N  0.76204473  0.08353030  0.71404551    -0.82000
H905        H  0.72475188  0.07197298  0.64159032     0.18500
N906        N  0.75933524  0.04899501  0.61978240    -0.80600
H907        H  0.76702106  0.06809113  0.72297697     0.34200
H908        H  0.74513681  0.08778948  0.72031744     0.38700
H909        H  0.74616930  0.03606178  0.62163290     0.34100
H910        H  0.77476101  0.03952272  0.61588564     0.30800
H911        H  0.80877689  0.08340435  0.59233771     0.34100
H912        H  0.79595074  0.09348264  0.61726476     0.30800
H913        H  0.87617555  0.03963127  0.67134779     0.38700
H914        H  0.85445954  0.02422536  0.68458501     0.34200
C915        C  0.13625541  0.06733290  0.74734599    -0.19600
C916        C  0.11340455  0.05816401  0.75229685     0.36700
C917        C  0.09831636  0.05215667  0.73342481    -0.25500
C918        C  0.10503708  0.05597630  0.70975737     0.03100
C919        C  0.12780780  0.06554505  0.70491679     0.27900
C920        C  0.14354495  0.06959641  0.72371640    -0.24700
N921        N  0.10452713  0.05566069  0.77605922    -0.82000
H922        H  0.08091597  0.04491868  0.73731063     0.13700
C923        C  0.08810521  0.04945400  0.69062553     0.03100
N924        N  0.13515834  0.07254908  0.68150105    -0.80600
H925        H  0.16095119  0.07678304  0.71992101     0.18500
C926        C  0.06493282  0.05875874  0.69082240    -0.25500
C927        C  0.04847990  0.05271394  0.67300826     0.36600
C928        C  0.05563326  0.03760196  0.65445658    -0.19500
C929        C  0.07857688  0.02793479  0.65455310    -0.24700
C930        C  0.09466219  0.03337468  0.67266477     0.27900
H931        H  0.05957749  0.07039372  0.70513808     0.13700
N932        N  0.02440568  0.06116159  0.67406267    -0.82000
H933        H  0.08384265  0.01563921  0.64073151     0.18500
N934        N  0.11749601  0.02216344  0.67307421    -0.80600
H935        H  0.02199177  0.07192570  0.68897696     0.34200
H936        H  0.01333211  0.04646878  0.67630740     0.38700
H937        H  0.11487145  0.00384134  0.67372059     0.34100
H938        H  0.12616563  0.02609013  0.65717444     0.30800
H939        H  0.13955593  0.09053089  0.68219878     0.34100
H940        H  0.12120008  0.07153110  0.66937285     0.30800
H941        H  0.11712061  0.06075846  0.78866141     0.38700
H942        H  0.10126409  0.03765532  0.77889085     0.34200
C943        C  0.01290428  0.97091959  0.61814180    -0.19600
C944        C  0.99312920  0.96335241  0.63132509     0.36700
C945        C  0.99121893  0.93941686  0.63758130    -0.25500
C946        C  0.00888143  0.92311740  0.63122027     0.03100
C947        C  0.02825114  0.93045317  0.61730188     0.27900
C948        C  0.03000817  0.95440677  0.61071591    -0.24700
N949        N  0.97621040  0.98038789  0.63992374    -0.82000
H950        H  0.97662181  0.93364756  0.64858792     0.13700
C951        C  0.00764394  0.89912519  0.64148226     0.03100
N952        N  0.04644443  0.91380846  0.61081475    -0.80600
H953        H  0.04549320  0.96053848  0.60112039     0.18500
C954        C  0.99465635  0.88171366  0.62938283    -0.25500
C955        C  0.98784286  0.86074577  0.64089397     0.36600
C956        C  0.99376877  0.85758222  0.66499959    -0.19500
C957        C  0.00904092  0.87369517  0.67615248    -0.24700
C958        C  0.01597858  0.89457045  0.66475190     0.27900
H959        H  0.98857417  0.88516582  0.61147668     0.13700
N960        N  0.97358285  0.84337599  0.62882353    -0.82000
H961        H  0.01377903  0.87116732  0.69461098     0.18500
N962        N  0.03002660  0.91135089  0.67792544    -0.80600
H963        H  0.98346858  0.82772049  0.62799606     0.34200
H964        H  0.97036350  0.84857296  0.61132458     0.38700
H965        H  0.04623074  0.90320438  0.68189299     0.34100
H966        H  0.03414289  0.92626902  0.66784889     0.30800
H967        H  0.05945850  0.92208279  0.60053297     0.34100
H968        H  0.05483733  0.90826133  0.62639671     0.30800
H969        H  0.96757803  0.98763417  0.62521299     0.38700
H970        H  0.96322546  0.97211287  0.65022354     0.34200
C971        C  0.34886613  0.15318701  0.10180655    -0.19600
C972        C  0.33589109  0.13187292  0.10001575     0.36700
C973        C  0.31948053  0.12601884  0.11795963    -0.25500
C974        C  0.31559816  0.14116901  0.13749474     0.03100
C975        C  0.32766408  0.16305165  0.13842357     0.27900
C976        C  0.34449012  0.16845033  0.12105300    -0.24700
N977        N  0.33940610  0.11629295  0.08014605    -0.82000
H978        H  0.31036156  0.10915060  0.11709883     0.13700
C979        C  0.30101314  0.13312701  0.15808418     0.03100
N980        N  0.32285474  0.17973592  0.15713241    -0.80600
H981        H  0.35441296  0.18482466  0.12266548     0.18500
C982        C  0.31069161  0.13524292  0.18099488    -0.25500
C983        C  0.29855245  0.12727166  0.20102203     0.36600
C984        C  0.27631557  0.11601406  0.19818101    -0.19500
C985        C  0.26630189  0.11413343  0.17545502    -0.24700
C986        C  0.27837397  0.12264037  0.15533749     0.27900
H987        H  0.32825389  0.14273423  0.18341020     0.13700
N988        N  0.30932871  0.13114133  0.22383279    -0.82000
H989        H  0.24925892  0.10543399  0.17338215     0.18500
N990        N  0.26781046  0.12051969  0.13222059    -0.80600
H991        H  0.32553181  0.12212642  0.22404596     0.34200
H992        H  0.29899008  0.12442996  0.23760862     0.38700
H993        H  0.25124264  0.11221127  0.13328849     0.34100
H994        H  0.26474346  0.13764677  0.12590335     0.30800
H995        H  0.33332580  0.19492509  0.15532370     0.34100
H996        H  0.30517889  0.18514982  0.15536515     0.30800
H997        H  0.33388853  0.12528958  0.06491631     0.38700
H998        H  0.32858972  0.10130892  0.08161291     0.34200
C999        C  0.34673222  0.33625817  0.03302989    -0.19600
C1000       C  0.33351454  0.31497381  0.03114171     0.36700
C1001       C  0.34390806  0.29360531  0.03823192    -0.25500
C1002       C  0.36697910  0.29286132  0.04755339     0.03100
C1003       C  0.37966572  0.31426366  0.05089085     0.27900
C1004       C  0.36921050  0.33575660  0.04384365    -0.24700
N1005       N  0.30991617  0.31423716  0.02131432    -0.82000
H1006       H  0.33396906  0.27728195  0.03609634     0.13700
C1007       C  0.37673666  0.26933730  0.05390970     0.03100
N1008       N  0.40319044  0.31485805  0.06085013    -0.80600
H1009       H  0.37935221  0.35200381  0.04541241     0.18500
C1010       C  0.38852608  0.25573843  0.03670869    -0.25500
C1011       C  0.39394500  0.23168002  0.04078708     0.36600
C1012       C  0.38702957  0.22108030  0.06244811    -0.19500
C1013       C  0.37739362  0.23561925  0.08037807    -0.24700
C1014       C  0.37196568  0.25949840  0.07623806     0.27900
H1015       H  0.39262804  0.26368784  0.01973070     0.13700
N1016       N  0.40591700  0.21807189  0.02287322    -0.82000
H1017       H  0.37310677  0.22802268  0.09747460     0.18500
N1018       N  0.36057236  0.27354556  0.09421759    -0.80600
H1019       H  0.40995777  0.22863566  0.00822594     0.34200
H1020       H  0.39436716  0.20482435  0.01701701     0.38700
H1021       H  0.35781327  0.26353597  0.10954859     0.34100
H1022       H  0.37224610  0.28719440  0.09887493     0.30800
H1023       H  0.41468940  0.32105224  0.04770402     0.34100
H1024       H  0.40911158  0.29796469  0.06546524     0.30800
H1025       H  0.30367977  0.33114692  0.01720890     0.38700
H1026       H  0.29858709  0.30774094  0.03445885     0.34200
C1027       C  0.37899427  0.04133369  0.12985251    -0.19600
C1028       C  0.37615856  0.02508837  0.14881515     0.36700
C1029       C  0.36060213  0.03057892  0.16752120    -0.25500
C1030       C  0.34898943  0.05243027  0.16823854     0.03100
C1031       C  0.35488286  0.06992813  0.15141224     0.27900
C1032       C  0.36938485  0.06416590  0.13210484    -0.24700
N1033       N  0.38845418  0.00276639  0.14851298    -0.82000
H1034       H  0.35678352  0.01748135  0.18100764     0.13700
C1035       C  0.32884232  0.05597509  0.18471110     0.03100
N1036       N  0.34570644  0.09345402  0.15328470    -0.80600
H1037       H  0.37196436  0.07713753  0.11820560     0.18500
C1038       C  0.33304000  0.06238105  0.20836806    -0.25500
C1039       C  0.31421399  0.06896751  0.22332764     0.36600
C1040       C  0.29078829  0.06951169  0.21407192    -0.19500
C1041       C  0.28649204  0.06078973  0.19117549    -0.24700
C1042       C  0.30528090  0.05394794  0.17638122     0.27900
H1043       H  0.35110958  0.06304991  0.21499352     0.13700
N1044       N  0.31957799  0.07508117  0.24752716    -0.82000
H1045       H  0.26847095  0.06064968  0.18436725     0.18500
N1046       N  0.30056719  0.04523677  0.15284035    -0.80600
H1047       H  0.33121197  0.08948657  0.24754823     0.34200
H1048       H  0.30443177  0.08031494  0.25678179     0.38700
H1049       H  0.28226496  0.04417547  0.14980588     0.34100
H1050       H  0.30713300  0.05754221  0.14069785     0.30800
H1051       H  0.32721345  0.09242800  0.15355294     0.34100
H1052       H  0.35127671  0.10052056  0.16951423     0.30800
H1053       H  0.40665884  0.00637708  0.14925524     0.38700
H1054       H  0.38437942  0.99288969  0.16363440     0.34200
C1055       C  0.38301242  0.97841092  0.06895169    -0.19600
C1056       C  0.38808640  0.95909248  0.08402074     0.36700
C1057       C  0.37850735  0.93664906  0.07894663    -0.25500
C1058       C  0.36410148  0.93290660  0.05895183     0.03100
C1059       C  0.35895031  0.95236218  0.04388790     0.27900
C1060       C  0.36864129  0.97483732  0.04897064    -0.24700
N1061       N  0.40270860  0.96251416  0.10468010    -0.82000
H1062       H  0.38207740  0.92204018  0.09085058     0.13700
C1063       C  0.35486234  0.90858244  0.05368319     0.03100
N1064       N  0.34371800  0.94932092  0.02361385    -0.80600
H1065       H  0.36435552  0.98980373  0.03774895     0.18500
C1066       C  0.33054994  0.90552169  0.04881806    -0.25500
C1067       C  0.32170957  0.88384501  0.04026644     0.36600
C1068       C  0.33737255  0.86469967  0.03692274    -0.19500
C1069       C  0.36110274  0.86684982  0.04404089    -0.24700
C1070       C  0.37012468  0.88862426  0.05232297     0.27900
H1071       H  0.31855487  0.92038945  0.05087196     0.13700
N1072       N  0.29711341  0.88149170  0.03377765    -0.82000
H1073       H  0.37283622  0.85178779  0.04208321     0.18500
N1074       N  0.39475750  0.89053532  0.05886316    -0.80600
H1075       H  0.28802153  0.89735890  0.03681150     0.34200
H1076       H  0.28954612  0.86887600  0.04501591     0.38700
H1077       H  0.40341773  0.87429205  0.05667837     0.34100
H1078       H  0.40292669  0.90241554  0.04732691     0.30800
H1079       H  0.34212042  0.96516292  0.01417320     0.34100
H1080       H  0.35172815  0.93711601  0.01224028     0.30800
H1081       H  0.40463676  0.94665251  0.11402665     0.38700
H1082       H  0.41966278  0.96732721  0.09886947     0.34200
C1083       C  0.35596283  0.03740861  0.92325424    -0.19600
C1084       C  0.35296341  0.02669308  0.90072082     0.36700
C1085       C  0.33206780  0.03075520  0.88773181    -0.25500
C1086       C  0.31451623  0.04625260  0.89608065     0.03100
C1087       C  0.31766514  0.05704772  0.91854046     0.27900
C1088       C  0.33833740  0.05264591  0.93184009    -0.24700
N1089       N  0.37107732  0.01137204  0.89129784    -0.82000
H1090       H  0.32933590  0.02139593  0.87120214     0.13700
C1091       C  0.29301750  0.05105496  0.88127137     0.03100
N1092       N  0.29976622  0.07229417  0.92809691    -0.80600
H1093       H  0.34022433  0.06052984  0.94928202     0.18500
C1094       C  0.27034401  0.04757451  0.89111615    -0.25500
C1095       C  0.24964809  0.05471760  0.87915887     0.36600
C1096       C  0.25161335  0.06547338  0.85659276    -0.19500
C1097       C  0.27407782  0.06767484  0.84615595    -0.24700
C1098       C  0.29467999  0.06043808  0.85799987     0.27900
H1099       H  0.26872819  0.03982770  0.90860791     0.13700
N1100       N  0.22715505  0.05130349  0.89071576    -0.82000
H1101       H  0.27569132  0.07597236  0.82891388     0.18500
N1102       N  0.31695643  0.06373313  0.84614454    -0.80600
H1103       H  0.22713783  0.06155130  0.90617981     0.34200
H1104       H  0.21304973  0.05722073  0.88026034     0.38700
H1105       H  0.32424642  0.04721873  0.84216044     0.34100
H1106       H  0.32865293  0.07295383  0.85716519     0.30800
H1107       H  0.30772046  0.08849009  0.93226477     0.34100
H1108       H  0.29377198  0.06485405  0.94395990     0.30800
H1109       H  0.38632473  0.02161467  0.88870063     0.38700
H1110       H  0.36612849  0.00479366  0.87466424     0.34200
C1111       C  0.34602045  0.86234986  0.98639838    -0.19600
C1112       C  0.37118771  0.86114850  0.98553877     0.36700
C1113       C  0.38413350  0.88088602  0.97775539    -0.25500
C1114       C  0.37258268  0.90160361  0.97050075     0.03100
C1115       C  0.34744938  0.90207854  0.96969148     0.27900
C1116       C  0.33446636  0.88257304  0.97780233    -0.24700
N1117       N  0.38417627  0.84033149  0.99244723    -0.82000
H1118       H  0.40337600  0.88023700  0.97788965     0.13700
C1119       C  0.38657591  0.92331439  0.96570298     0.03100
N1120       N  0.33467611  0.92241796  0.96139755    -0.80600
H1121       H  0.31523949  0.88355918  0.97828327     0.18500
C1122       C  0.38801204  0.93196769  0.94252763    -0.25500
C1123       C  0.39530968  0.95535165  0.93828313     0.36600
C1124       C  0.40002475  0.97054047  0.95772203    -0.19500
C1125       C  0.40167222  0.96089705  0.98053906    -0.24700
C1126       C  0.39558212  0.93709949  0.98457715     0.27900
H1127       H  0.38214221  0.92091875  0.92791707     0.13700
N1128       N  0.39651916  0.96427831  0.91445822    -0.82000
H1129       H  0.40598267  0.97228395  0.99543022     0.18500
N1130       N  0.39719413  0.92725655  0.00794790    -0.80600
H1131       H  0.39230157  0.95096591  0.90224221     0.34200
H1132       H  0.41415499  0.96910286  0.91124502     0.38700
H1133       H  0.40365968  0.93989260  0.01990692     0.34100
H1134       H  0.40993963  0.91381319  0.00729810     0.30800
H1135       H  0.33925523  0.92537708  0.94370225     0.34100
H1136       H  0.33983143  0.93718154  0.97134897     0.30800
H1137       H  0.37290383  0.82670549  0.99785580     0.38700
H1138       H  0.39489162  0.84477007  0.00694024     0.34200
C1139       C  0.35221739  0.33891691  0.98228970    -0.19600
C1140       C  0.37626295  0.33223402  0.98549135     0.36700
C1141       C  0.38336998  0.30930116  0.97916749    -0.25500
C1142       C  0.36735604  0.29346559  0.96856249     0.03100
C1143       C  0.34443480  0.30161757  0.96198451     0.27900
C1144       C  0.33702427  0.32408937  0.96937916    -0.24700
N1145       N  0.39346502  0.34774102  0.99623580    -0.82000
H1146       H  0.40107741  0.30339317  0.98387271     0.13700
C1147       C  0.37318917  0.26786609  0.96838000     0.03100
N1148       N  0.32787544  0.28717279  0.94892606    -0.80600
H1149       H  0.31875025  0.32935959  0.96634563     0.18500
C1150       C  0.35814991  0.25260109  0.98090490    -0.25500
C1151       C  0.36159684  0.22809333  0.98044971     0.36600
C1152       C  0.38077875  0.21858277  0.96740812    -0.19500
C1153       C  0.39686205  0.23388589  0.95618521    -0.24700
C1154       C  0.39319375  0.25858799  0.95648905     0.27900
H1155       H  0.34330061  0.25990363  0.99071924     0.13700
N1156       N  0.34526505  0.21272020  0.99259998    -0.82000
H1157       H  0.41159158  0.22648657  0.94628283     0.18500
N1158       N  0.40924291  0.27416150  0.94431540    -0.80600
H1159       H  0.33201853  0.22254544  0.00110123     0.34200
H1160       H  0.35461884  0.20384271  0.00589089     0.38700
H1161       H  0.42303296  0.26450516  0.93650810     0.34100
H1162       H  0.39981586  0.28215459  0.93049303     0.30800
H1163       H  0.32327872  0.29645205  0.93356105     0.34100
H1164       H  0.33585502  0.27157094  0.94297673     0.30800
H1165       H  0.38622735  0.36447886  0.99940638     0.38700
H1166       H  0.40709103  0.35030915  0.98392864     0.34200
C1167       C  0.33979646  0.14644155  0.94060015    -0.19600
C1168       C  0.31678903  0.15384246  0.94747339     0.36700
C1169       C  0.29723930  0.14875670  0.93279849    -0.25500
C1170       C  0.30003069  0.13567473  0.91181397     0.03100
C1171       C  0.32286620  0.12697310  0.90585298     0.27900
C1172       C  0.34247092  0.13246897  0.92027947    -0.24700
N1173       N  0.31354706  0.16709079  0.96903607    -0.82000
H1174       H  0.27985820  0.15550393  0.93750363     0.13700
C1175       C  0.27912571  0.13087922  0.89620653     0.03100
N1176       N  0.32606125  0.11262332  0.88506773    -0.80600
H1177       H  0.36009106  0.12683061  0.91498997     0.18500
C1178       C  0.28107779  0.13522852  0.87172530    -0.25500
C1179       C  0.26364901  0.12725531  0.85576720     0.36600
C1180       C  0.24367439  0.11521111  0.86454370    -0.19500
C1181       C  0.24036583  0.11310062  0.88904082    -0.24700
C1182       C  0.25793327  0.12069943  0.90506288     0.27900
H1183       H  0.29680538  0.14394769  0.86494769     0.13700
N1184       N  0.26682344  0.12998514  0.83063702    -0.82000
H1185       H  0.22462541  0.10422301  0.89556786     0.18500
N1186       N  0.25457142  0.11736805  0.93010185    -0.80600
H1187       H  0.28287638  0.13856712  0.82704348     0.34200
H1188       H  0.25332233  0.14111690  0.82449064     0.38700
H1189       H  0.23795623  0.10983019  0.93351216     0.34100
H1190       H  0.26722989  0.10522410  0.93599224     0.30800
H1191       H  0.34373763  0.10714673  0.88351213     0.34100
H1192       H  0.31590156  0.09737223  0.88744626     0.30800
H1193       H  0.31844970  0.15611710  0.98312976     0.38700
H1194       H  0.29562813  0.17130436  0.97149764     0.34200
C1195       C  0.59321198  0.22071469  0.06741114    -0.19600
C1196       C  0.58553089  0.24195173  0.07822755     0.36700
C1197       C  0.59773982  0.26319619  0.07351959    -0.25500
C1198       C  0.61744679  0.26351445  0.05830787     0.03100
C1199       C  0.62456589  0.24234776  0.04697352     0.27900
C1200       C  0.61226097  0.22120876  0.05150190    -0.24700
N1201       N  0.56542999  0.24183216  0.09394088    -0.82000
H1202       H  0.59236147  0.27938928  0.08233533     0.13700
C1203       C  0.63086830  0.28588153  0.05442331     0.03100
N1204       N  0.64471576  0.24233362  0.03140049    -0.80600
H1205       H  0.61831880  0.20478848  0.04355366     0.18500
C1206       C  0.65487518  0.28703998  0.06125343    -0.25500
C1207       C  0.66929567  0.30633012  0.05467696     0.36600
C1208       C  0.65948440  0.32470899  0.04092278    -0.19500
C1209       C  0.63506314  0.32441342  0.03573196    -0.24700
C1210       C  0.62076798  0.30517440  0.04208384     0.27900
H1211       H  0.66259382  0.27234892  0.07091008     0.13700
N1212       N  0.69414391  0.30655345  0.06054026    -0.82000
H1213       H  0.62739792  0.33856226  0.02525091     0.18500
N1214       N  0.59645969  0.30509100  0.03451763    -0.80600
H1215       H  0.69879127  0.29116709  0.06973361     0.34200
H1216       H  0.69700525  0.32066639  0.07221918     0.38700
H1217       H  0.59342099  0.28987072  0.02440094     0.34100
H1218       H  0.58556789  0.30451484  0.04947227     0.30800
H1219       H  0.64740965  0.22549478  0.02413039     0.34100
H1220       H  0.64057735  0.25351473  0.01733389     0.30800
H1221       H  0.57010556  0.23231258  0.10911116     0.38700
H1222       H  0.56153492  0.25903621  0.09963688     0.34200
C1223       C  0.59725954  0.15992557  0.13022833    -0.19600
C1224       C  0.58361086  0.14797708  0.14753963     0.36700
C1225       C  0.59286020  0.14513730  0.17063615    -0.25500
C1226       C  0.61492405  0.15488424  0.17726022     0.03100
C1227       C  0.62864851  0.16645934  0.15987024     0.27900
C1228       C  0.62010781  0.16798397  0.13654768    -0.24700
N1229       N  0.56020428  0.13941635  0.14199641    -0.82000
H1230       H  0.58253864  0.13567005  0.18369792     0.13700
C1231       C  0.62395180  0.15191354  0.20205777     0.03100
N1232       N  0.65095541  0.17727705  0.16606333    -0.80600
H1233       H  0.63112210  0.17649444  0.12333626     0.18500
C1234       C  0.64714050  0.14338324  0.20562733    -0.25500
C1235       C  0.65550280  0.13783824  0.22823578     0.36600
C1236       C  0.64046300  0.14052305  0.24800808    -0.19500
C1237       C  0.61816854  0.15122804  0.24498726    -0.24700
C1238       C  0.60963973  0.15680505  0.22212307     0.27900
H1239       H  0.65858162  0.13983121  0.19062018     0.13700
N1240       N  0.67919449  0.12885380  0.23060230    -0.82000
H1241       H  0.60676673  0.15360986  0.26027104     0.18500
N1242       N  0.58634986  0.16682392  0.21917664    -0.80600
H1243       H  0.67850521  0.11190705  0.23791516     0.34200
H1244       H  0.68844666  0.13986322  0.24234049     0.38700
H1245       H  0.57808282  0.16907584  0.23561931     0.34100
H1246       H  0.58844438  0.18372450  0.21193198     0.30800
H1247       H  0.65883754  0.18509671  0.15123995     0.34100
H1248       H  0.64739572  0.19096895  0.17805778     0.30800
H1249       H  0.54947344  0.15413528  0.13855974     0.38700
H1250       H  0.55276523  0.13078086  0.15659546     0.34200
C1251       C  0.66817236  0.31980714  0.99076817    -0.19600
C1252       C  0.67920414  0.29732498  0.99234577     0.36700
C1253       C  0.66699640  0.27721523  0.98438058    -0.25500
C1254       C  0.64404870  0.27884507  0.97469479     0.03100
C1255       C  0.63383941  0.30148271  0.97142341     0.27900
C1256       C  0.64603249  0.32175598  0.97950511    -0.24700
N1257       N  0.70255909  0.29415505  0.00223740    -0.82000
H1258       H  0.67515080  0.25999732  0.98678975     0.13700
C1259       C  0.63058480  0.25664923  0.96927592     0.03100
N1260       N  0.61095150  0.30372637  0.96032747    -0.80600
H1261       H  0.63768691  0.33900357  0.97820846     0.18500
C1262       C  0.60785168  0.25327916  0.97905115    -0.25500
C1263       C  0.59454019  0.23262662  0.97442691     0.36600
C1264       C  0.60445477  0.21450840  0.96023380    -0.19500
C1265       C  0.62768230  0.21749040  0.95142943    -0.24700
C1266       C  0.64057746  0.23846456  0.95531680     0.27900
H1267       H  0.60031498  0.26701207  0.99011618     0.13700
N1268       N  0.57077546  0.23042670  0.98344823    -0.82000
H1269       H  0.63553159  0.20362560  0.94068118     0.18500
N1270       N  0.66351800  0.24161601  0.94458079    -0.80600
H1271       H  0.56630127  0.24517418  0.99376623     0.34200
H1272       H  0.55918841  0.23037888  0.96893959     0.38700
H1273       H  0.66830062  0.22662160  0.93477609     0.34100
H1274       H  0.66213642  0.25559367  0.93251915     0.30800
H1275       H  0.60588853  0.32152094  0.95940011     0.34100
H1276       H  0.61259516  0.29771676  0.94285708     0.30800
H1277       H  0.71029543  0.31022855  0.00717363     0.38700
H1278       H  0.70088851  0.28393085  0.01757226     0.34200
C1279       C  0.62983873  0.13065165  0.78109817    -0.19600
C1280       C  0.64292208  0.13190127  0.80235283     0.36700
C1281       C  0.63190262  0.14053917  0.82295245    -0.25500
C1282       C  0.60791882  0.14742674  0.82278478     0.03100
C1283       C  0.59516359  0.14699828  0.80119168     0.27900
C1284       C  0.60642925  0.13917669  0.78045332    -0.24700
N1285       N  0.66695020  0.12331062  0.80311144    -0.82000
H1286       H  0.64171401  0.14092462  0.83950126     0.13700
C1287       C  0.59631014  0.15279230  0.84580115     0.03100
N1288       N  0.57043166  0.15287367  0.80013378    -0.80600
H1289       H  0.59631393  0.13803175  0.76412386     0.18500
C1290       C  0.58868406  0.17583136  0.85112551    -0.25500
C1291       C  0.58058204  0.18165405  0.87405013     0.36600
C1292       C  0.58058741  0.16413589  0.89200805    -0.19500
C1293       C  0.58687123  0.14086031  0.88612971    -0.24700
C1294       C  0.59472952  0.13516486  0.86329267     0.27900
H1295       H  0.58990659  0.18945984  0.83769048     0.13700
N1296       N  0.57287330  0.20535377  0.87933993    -0.82000
H1297       H  0.58703217  0.12725111  0.89966351     0.18500
N1298       N  0.60214590  0.11153878  0.85815573    -0.80600
H1299       H  0.57403787  0.21606427  0.86428214     0.34200
H1300       H  0.55489231  0.20451430  0.88388541     0.38700
H1301       H  0.61601462  0.10755743  0.86981656     0.34100
H1302       H  0.58790752  0.10023093  0.86180581     0.30800
H1303       H  0.56830847  0.17044839  0.80554001     0.34100
H1304       H  0.56126904  0.14196709  0.81196944     0.30800
H1305       H  0.67715416  0.13416206  0.79210713     0.38700
H1306       H  0.67396447  0.12502107  0.82020817     0.34200
C1307       C  0.60983122  0.99593171  0.96380234    -0.19600
C1308       C  0.60769659  0.97342937  0.95295415     0.36700
C1309       C  0.62251203  0.95477879  0.96028449    -0.25500
C1310       C  0.63917574  0.95795019  0.97853944     0.03100
C1311       C  0.64073170  0.98030968  0.98978044     0.27900
C1312       C  0.62601630  0.99901273  0.98243048    -0.24700
N1313       N  0.59067603  0.96974902  0.93426692    -0.82000
H1314       H  0.62137794  0.93780453  0.95136391     0.13700
C1315       C  0.65516623  0.93795488  0.98529384     0.03100
N1316       N  0.65742603  0.98421902  0.00852532    -0.80600
H1317       H  0.62786646  0.01624488  0.99074576     0.18500
C1318       C  0.67990388  0.94151842  0.98547863    -0.25500
C1319       C  0.69555234  0.92362876  0.99308249     0.36600
C1320       C  0.68626161  0.90187414  0.00093745    -0.19500
C1321       C  0.66174496  0.89774991  0.99951740    -0.24700
C1322       C  0.64607275  0.91542368  0.99150635     0.27900
H1323       H  0.68700969  0.95845033  0.97991547     0.13700
N1324       N  0.72071116  0.92785574  0.99404612    -0.82000
H1325       H  0.65476148  0.88091397  0.00552888     0.18500
N1326       N  0.62102896  0.91055470  0.98986386    -0.80600
H1327       H  0.72462710  0.94500532  0.98827950     0.34200
H1328       H  0.72878682  0.91626105  0.98203836     0.38700
H1329       H  0.61739035  0.89316743  0.99507818     0.34100
H1330       H  0.61207969  0.92161405  0.00169877     0.30800
H1331       H  0.64810089  0.99037632  0.02330079     0.34100
H1332       H  0.66898968  0.99769526  0.00323200     0.30800
H1333       H  0.59140820  0.95229727  0.92806351     0.38700
H1334       H  0.57375448  0.97212168  0.94151834     0.34200
C1335       C  0.62848643  0.07879599  0.77866723    -0.19600
C1336       C  0.64309482  0.06356065  0.79213984     0.36700
C1337       C  0.63414928  0.05343241  0.81306236    -0.25500
C1338       C  0.61111906  0.05856564  0.82113087     0.03100
C1339       C  0.59621705  0.07286035  0.80703858     0.27900
C1340       C  0.60474550  0.08213455  0.78559905    -0.24700
N1341       N  0.66742283  0.05966871  0.78547507    -0.82000
H1342       H  0.64564828  0.04246249  0.82387339     0.13700
C1343       C  0.60465246  0.05223834  0.84593658     0.03100
N1344       N  0.57294984  0.07920232  0.81511026    -0.80600
H1345       H  0.59315969  0.09320154  0.77502239     0.18500
C1346       C  0.61981047  0.06035150  0.86401257    -0.25500
C1347       C  0.61397228  0.05773770  0.88799964     0.36600
C1348       C  0.59278107  0.04614115  0.89421322    -0.19500
C1349       C  0.57786460  0.03719961  0.87635452    -0.24700
C1350       C  0.58365445  0.03980822  0.85222677     0.27900
H1351       H  0.63595002  0.06970882  0.85934144     0.13700
N1352       N  0.62920305  0.06735954  0.90611855    -0.82000
H1353       H  0.56197357  0.02752541  0.88122093     0.18500
N1354       N  0.56828414  0.02906626  0.83486260    -0.80600
H1355       H  0.64354925  0.07633439  0.89853959     0.34200
H1356       H  0.63641901  0.05319930  0.91561644     0.38700
H1357       H  0.56772233  0.01089818  0.83839579     0.34100
H1358       H  0.57532719  0.03053521  0.81782949     0.30800
H1359       H  0.57212819  0.09765964  0.81640062     0.34100
H1360       H  0.56068741  0.07381851  0.80224196     0.30800
H1361       H  0.66734166  0.04899940  0.77031941     0.38700
H1362       H  0.67630706  0.04992339  0.79850499     0.34200
C1363       C  0.63024385  0.09055761  0.25357651    -0.19600
C1364       C  0.64195705  0.07348553  0.23963671     0.36700
C1365       C  0.63191085  0.06629001  0.21796270    -0.25500
C1366       C  0.61066075  0.07642452  0.20961075     0.03100
C1367       C  0.59747235  0.09131973  0.22499979     0.27900
C1368       C  0.60715857  0.09749463  0.24708853    -0.24700
N1369       N  0.66465609  0.06445516  0.24667081    -0.82000
H1370       H  0.64170220  0.05415507  0.20671035     0.13700
C1371       C  0.60402731  0.07272615  0.18430107     0.03100
N1372       N  0.57519185  0.10191244  0.21839545    -0.80600
H1373       H  0.59741425  0.10958764  0.25840373     0.18500
C1374       C  0.58352827  0.05957563  0.17874031    -0.25500
C1375       C  0.57722270  0.05483581  0.15501282     0.36600
C1376       C  0.59193743  0.06302753  0.13662150    -0.19500
C1377       C  0.61218281  0.07633019  0.14206811    -0.24700
C1378       C  0.61836641  0.08149164  0.16554129     0.27900
H1379       H  0.57263894  0.05273455  0.19299950     0.13700
N1380       N  0.55660608  0.04084599  0.14950835    -0.82000
H1381       H  0.62374695  0.08219107  0.12787720     0.18500
N1382       N  0.63961423  0.09510961  0.16944341    -0.80600
H1383       H  0.54786867  0.03584085  0.16505902     0.34200
H1384       H  0.54480998  0.05163143  0.14009898     0.38700
H1385       H  0.63732954  0.11146992  0.16110619     0.34100
H1386       H  0.64232269  0.09879623  0.18732301     0.30800
H1387       H  0.56216929  0.09524108  0.22976478     0.34100
H1388       H  0.57005952  0.09747334  0.20120339     0.30800
H1389       H  0.67684586  0.06815882  0.23321077     0.38700
H1390       H  0.66324008  0.04604606  0.24809641     0.34200
C1391       C  0.61943984  0.00679080  0.07550598    -0.19600
C1392       C  0.64297304  0.00555084  0.08435400     0.36700
C1393       C  0.65587308  0.98437987  0.08224795    -0.25500
C1394       C  0.64696016  0.96503332  0.06935276     0.03100
C1395       C  0.62395072  0.96681716  0.05923101     0.27900
C1396       C  0.61029583  0.98740778  0.06286644    -0.24700
N1397       N  0.65379778  0.02591407  0.09530298    -0.82000
H1398       H  0.67323276  0.98318127  0.09044545     0.13700
C1399       C  0.66237623  0.94373469  0.06531499     0.03100
N1400       N  0.61479038  0.94802545  0.04468010    -0.80600
H1401       H  0.59233879  0.98820570  0.05597966     0.18500
C1402       C  0.65270739  0.92083053  0.06766762    -0.25500
C1403       C  0.66535354  0.90060893  0.06050155     0.36600
C1404       C  0.68871399  0.90323574  0.05176120    -0.19500
C1405       C  0.69930048  0.92566482  0.05186162    -0.24700
C1406       C  0.68635176  0.94599937  0.05795524     0.27900
H1407       H  0.63474045  0.91866599  0.07417409     0.13700
N1408       N  0.65346649  0.87807281  0.06111145    -0.82000
H1409       H  0.71728095  0.92749775  0.04525463     0.18500
N1410       N  0.69728582  0.96890163  0.05562380    -0.80600
H1411       H  0.64958616  0.87434123  0.07883708     0.34200
H1412       H  0.66447784  0.86443469  0.05516434     0.38700
H1413       H  0.71497640  0.96731335  0.05021422     0.34100
H1414       H  0.68845148  0.97800991  0.04216895     0.30800
H1415       H  0.59786966  0.95222469  0.03826800     0.34100
H1416       H  0.62591666  0.94684685  0.02993997     0.30800
H1417       H  0.65507715  0.03911522  0.08239099     0.38700
H1418       H  0.67114580  0.02210958  0.10075119     0.34200
C1419       C  0.05840505  0.47286280  0.11994142    -0.19600
C1420       C  0.06433526  0.44864075  0.12276633     0.36700
C1421       C  0.05975800  0.43719721  0.14439946    -0.25500
C1422       C  0.04787224  0.44870980  0.16302227     0.03100
C1423       C  0.04064646  0.47257964  0.15968911     0.27900
C1424       C  0.04616533  0.48438821  0.13831637    -0.24700
N1425       N  0.07506709  0.43569012  0.10357174    -0.82000
H1426       H  0.06574357  0.41912834  0.14673924     0.13700
C1427       C  0.04282310  0.43549369  0.18561910     0.03100
N1428       N  0.02801936  0.48492137  0.17810366    -0.80600
H1429       H  0.04147795  0.50288126  0.13627018     0.18500
C1430       C  0.04729106  0.44640646  0.20768548    -0.25500
C1431       C  0.04003172  0.43603493  0.22913819     0.36600
C1432       C  0.02882187  0.41362886  0.22870859    -0.19500
C1433       C  0.02699175  0.40147134  0.20706855    -0.24700
C1434       C  0.03316404  0.41228030  0.18549964     0.27900
H1435       H  0.05574149  0.46363504  0.20826390     0.18200
N1436       N  0.04325740  0.44930676  0.25068522    -0.82000
H1437       H  0.01869209  0.38414436  0.20684074     0.18500
N1438       N  0.02865685  0.40002759  0.16355743    -0.80600
H1439       H  0.06153146  0.45143292  0.25327317     0.34200
H1440       H  0.03693504  0.44008290  0.26538576     0.38700
H1441       H  0.02170640  0.38314732  0.16669927     0.34100
H1442       H  0.01558428  0.40936243  0.15434765     0.30800
H1443       H  0.02373721  0.50211990  0.17275081     0.34100
H1444       H  0.01195868  0.47614076  0.18093851     0.30800
H1445       H  0.06278471  0.43515431  0.08965310     0.38700
H1446       H  0.07831779  0.41812516  0.10844577     0.34200
C1447       C  0.23555871  0.44250018  0.02952532    -0.19600
C1448       C  0.22021385  0.42972777  0.04452475     0.36700
C1449       C  0.19861212  0.44006126  0.05149188    -0.25500
C1450       C  0.19243126  0.46290871  0.04397843     0.03100
C1451       C  0.20854584  0.47632923  0.03051884     0.27900
C1452       C  0.23014347  0.46604986  0.02362677    -0.24700
N1453       N  0.22589151  0.40587541  0.05134878    -0.82000
H1454       H  0.18617748  0.43004817  0.06216769     0.13700
C1455       C  0.16856087  0.47214451  0.04951953     0.03100
N1456       N  0.20256423  0.50001013  0.02333668    -0.80600
H1457       H  0.24220623  0.47589288  0.01238673     0.18500
C1458       C  0.16634807  0.48922084  0.06747284    -0.25500
C1459       C  0.14389576  0.49753185  0.07441706     0.36600
C1460       C  0.12350455  0.48857039  0.06307043    -0.19500
C1461       C  0.12571840  0.47218435  0.04457429    -0.24700
C1462       C  0.14800132  0.46384518  0.03755918     0.27900
H1463       H  0.18215764  0.49567105  0.07638008     0.13700
N1464       N  0.14161120  0.51464318  0.09317782    -0.82000
H1465       H  0.10991541  0.46535544  0.03591681     0.18500
N1466       N  0.14893118  0.44675796  0.01863602    -0.80600
H1467       H  0.15833921  0.51932278  0.09977926     0.34200
H1468       H  0.13427948  0.52999994  0.08585472     0.38700
H1469       H  0.14201191  0.45480135  0.00344220     0.34100
H1470       H  0.16634288  0.44201490  0.01460212     0.30800
H1471       H  0.21625826  0.50733741  0.01321494     0.34100
H1472       H  0.18769897  0.49897276  0.01226852     0.30800
H1473       H  0.24060191  0.40667336  0.06264625     0.38700
H1474       H  0.21206061  0.39854947  0.06128413     0.34200
C1475       C  0.23225559  0.43335107  0.97909430    -0.19600
C1476       C  0.21109572  0.42005766  0.98184908     0.36700
C1477       C  0.18960227  0.42918471  0.97328539    -0.25500
C1478       C  0.18852461  0.45113585  0.96168080     0.03100
C1479       C  0.20996352  0.46331685  0.95695923     0.27900
C1480       C  0.23160328  0.45436524  0.96586649    -0.24700
N1481       N  0.21066083  0.39737834  0.99340986    -0.82000
H1482       H  0.17340423  0.41940163  0.97667281     0.13700
C1483       C  0.16475675  0.46164499  0.95604792     0.03100
N1484       N  0.20960804  0.48488076  0.94346219    -0.80600
H1485       H  0.24784232  0.46438952  0.96349863     0.18500
C1486       C  0.15945059  0.48473885  0.96376948    -0.25500
C1487       C  0.13702373  0.49506074  0.95968148     0.36600
C1488       C  0.11897600  0.48167144  0.94846060    -0.19500
C1489       C  0.12420824  0.45839341  0.94110137    -0.24700
C1490       C  0.14695919  0.44849002  0.94423936     0.27900
H1491       H  0.17298909  0.49490119  0.97286097     0.13700
N1492       N  0.13284213  0.51934214  0.96618371    -0.82000
H1493       H  0.11060907  0.44807500  0.93221905     0.18500
N1494       N  0.15221980  0.42533682  0.93495660    -0.80600
H1495       H  0.14785775  0.52662281  0.97434723     0.34200
H1496       H  0.13013677  0.52890829  0.95055145     0.38700
H1497       H  0.13728420  0.41805890  0.92664728     0.34100
H1498       H  0.16515662  0.42735438  0.92182533     0.30800
H1499       H  0.22679208  0.49165824  0.94161546     0.34100
H1500       H  0.20364145  0.48067476  0.92639816     0.30800
H1501       H  0.22759500  0.39191705  0.99860776     0.38700
H1502       H  0.20034659  0.39899499  0.00872255     0.34200
C1503       C  0.02362798  0.44339893  0.77828550    -0.19600
C1504       C  0.03061508  0.43296242  0.80001821     0.36700
C1505       C  0.03997826  0.44729946  0.81808366    -0.25500
C1506       C  0.04261584  0.47184193  0.81519908     0.03100
C1507       C  0.03705148  0.48210879  0.79299209     0.27900
C1508       C  0.02776690  0.46769280  0.77478273    -0.24700
N1509       N  0.02820806  0.40801192  0.80453735    -0.82000
H1510       H  0.04448814  0.43927959  0.83495437     0.13700
C1511       C  0.04945463  0.48591028  0.83650832     0.03100
N1512       N  0.03973712  0.50703110  0.78855171    -0.80600
H1513       H  0.02258858  0.47577415  0.75814470     0.18500
C1514       C  0.07343802  0.48856821  0.84242020    -0.25500
C1515       C  0.08025482  0.49718521  0.86489405     0.36600
C1516       C  0.06273365  0.50090077  0.88268382    -0.19500
C1517       C  0.03868121  0.50033918  0.87579365    -0.24700
C1518       C  0.03202918  0.49382648  0.85256919     0.27900
H1519       H  0.08685362  0.48352875  0.82960460     0.13700
N1520       N  0.10487383  0.50205022  0.86969843    -0.82000
H1521       H  0.02492993  0.50411296  0.88865606     0.18500
N1522       N  0.00766769  0.49513939  0.84515284    -0.80600
H1523       H  0.11529958  0.49853556  0.85476851     0.34200
H1524       H  0.10639348  0.52019635  0.87312330     0.38700
H1525       H  0.99685587  0.50078143  0.85912562     0.34100
H1526       H  0.00226535  0.47811429  0.84049271     0.30800
H1527       H  0.05218454  0.50892983  0.77494459     0.34100
H1528       H  0.04671328  0.51585705  0.80327642     0.30800
H1529       H  0.02148234  0.39891440  0.78986685     0.38700
H1530       H  0.01602056  0.40590882  0.81834279     0.34200
C1531       C  0.88658930  0.48641794  0.96220008    -0.19600
C1532       C  0.88340512  0.47317686  0.98309334     0.36700
C1533       C  0.86095381  0.46341092  0.98799915    -0.25500
C1534       C  0.84189699  0.46596940  0.97214725     0.03100
C1535       C  0.84494222  0.47944647  0.95142892     0.27900
C1536       C  0.86720652  0.48972082  0.94675023    -0.24700
N1537       N  0.90318080  0.46877926  0.99863186    -0.82000
H1538       H  0.85842913  0.45327941  0.00396022     0.13700
C1539       C  0.81901095  0.45395766  0.97727142     0.03100
N1540       N  0.82556024  0.48221534  0.93504407    -0.80600
H1541       H  0.86976119  0.49963942  0.93051715     0.18500
C1542       C  0.80035483  0.46741079  0.98672676    -0.25500
C1543       C  0.77913474  0.45672709  0.99411723     0.36600
C1544       C  0.77649829  0.43184967  0.99204199    -0.19500
C1545       C  0.79440943  0.41865501  0.98086767    -0.24700
C1546       C  0.81572181  0.42931987  0.97360489     0.27900
H1547       H  0.80260319  0.48633644  0.98910757     0.13700
N1548       N  0.76109391  0.47152378  0.00445858    -0.82000
H1549       H  0.79253277  0.39960238  0.97932598     0.18500
N1550       N  0.83378296  0.41445033  0.96338891    -0.80600
H1551       H  0.75581052  0.48370547  0.99154597     0.34200
H1552       H  0.74592029  0.46180257  0.00871157     0.38700
H1553       H  0.82688070  0.40730280  0.94770968     0.34100
H1554       H  0.84879499  0.42412314  0.95854442     0.30800
H1555       H  0.83070102  0.49270346  0.92067948     0.34100
H1556       H  0.82153700  0.46547088  0.92816389     0.30800
H1557       H  0.91579335  0.45904929  0.98912501     0.38700
H1558       H  0.89794679  0.45794213  0.01267040     0.34200
C1559       C  0.94746356  0.48301039  0.89967126    -0.19600
C1560       C  0.93283869  0.48835829  0.88011616     0.36700
C1561       C  0.93741994  0.47766219  0.85820821    -0.25500
C1562       C  0.95668766  0.46219343  0.85521488     0.03100
C1563       C  0.97221362  0.45784142  0.87469835     0.27900
C1564       C  0.96711103  0.46810584  0.89676387    -0.24700
N1565       N  0.91323465  0.50449662  0.88273546    -0.82000
H1566       H  0.92581508  0.48135552  0.84331189     0.13700
C1567       C  0.96056214  0.45218389  0.83117064     0.03100
N1568       N  0.99316765  0.44330255  0.87290907    -0.80600
H1569       H  0.97839166  0.46415583  0.91184339     0.18500
C1570       C  0.96284586  0.46808923  0.81216393    -0.25500
C1571       C  0.96877186  0.46022520  0.78943871     0.36600
C1572       C  0.97330362  0.43589036  0.78580923    -0.19500
C1573       C  0.96882395  0.41974958  0.80409752    -0.24700
C1574       C  0.96191061  0.42751442  0.82664314     0.27900
H1575       H  0.96067761  0.48694142  0.81516052     0.13700
N1576       N  0.96980095  0.47730759  0.77058583    -0.82000
H1577       H  0.97155340  0.40097675  0.80106024     0.18500
N1578       N  0.95702505  0.40997189  0.84445355    -0.80600
H1579       H  0.98316416  0.48951850  0.77463017     0.34200
H1580       H  0.97414073  0.46941622  0.75440588     0.38700
H1581       H  0.94308007  0.39943805  0.83817860     0.34100
H1582       H  0.95077705  0.41769784  0.86005755     0.30800
H1583       H  0.00775885  0.45367207  0.87783994     0.34100
H1584       H  0.99644584  0.43801825  0.85551010     0.30800
H1585       H  0.92026063  0.52112229  0.88698279     0.38700
H1586       H  0.90414496  0.50645431  0.86667610     0.34200
C1587       C  0.95750112  0.48223138  0.12343258    -0.19600
C1588       C  0.97729178  0.46734722  0.12670085     0.36700
C1589       C  0.98045835  0.45616516  0.14864207    -0.25500
C1590       C  0.96424039  0.45950197  0.16721804     0.03100
C1591       C  0.94514655  0.47534311  0.16435580     0.27900
C1592       C  0.94203101  0.48668406  0.14245198    -0.24700
N1593       N  0.99307114  0.46234851  0.10730135    -0.82000
H1594       H  0.99529685  0.44429511  0.15113440     0.13700
C1595       C  0.96708486  0.44545660  0.18914127     0.03100
N1596       N  0.92845604  0.47898471  0.18328820    -0.80600
H1597       H  0.92667679  0.49794087  0.13968454     0.18500
C1598       C  0.97160155  0.45706562  0.21067616    -0.25500
C1599       C  0.97717497  0.44408681  0.23114581     0.36600
C1600       C  0.97814530  0.41918902  0.22988816    -0.19500
C1601       C  0.97161096  0.40753839  0.20893975    -0.24700
C1602       C  0.96636103  0.42047918  0.18837365     0.27900
H1603       H  0.97187100  0.47625321  0.21120740     0.13700
N1604       N  0.98308061  0.45599718  0.25291457    -0.82000
H1605       H  0.97240600  0.38837179  0.20818653     0.18500
N1606       N  0.96116867  0.40843813  0.16648519    -0.80600
H1607       H  0.98186073  0.47435442  0.25081261     0.34200
H1608       H  0.97030332  0.45125452  0.26547823     0.38700
H1609       H  0.96176233  0.39007982  0.16883637     0.34100
H1610       H  0.94370837  0.41264740  0.16175010     0.30800
H1611       H  0.91540172  0.49116162  0.17824962     0.34100
H1612       H  0.91975304  0.46290128  0.18626850     0.30800
H1613       H  0.00203232  0.47802204  0.10324894     0.38700
H1614       H  0.00609485  0.45017233  0.11243586     0.34200
C1615       C  0.78213666  0.42315439  0.04177173    -0.19600
C1616       C  0.78464419  0.44467098  0.05438836     0.36700
C1617       C  0.80755905  0.45337029  0.05920206    -0.25500
C1618       C  0.82805625  0.44171037  0.05080486     0.03100
C1619       C  0.82532202  0.41940911  0.03946485     0.27900
C1620       C  0.80248751  0.41008848  0.03605012    -0.24700
N1621       N  0.76455325  0.45868500  0.06152207    -0.82000
H1622       H  0.80926939  0.46981862  0.06897460     0.13700
C1623       C  0.85205753  0.45289294  0.05397967     0.03100
N1624       N  0.84551275  0.40662733  0.03044780    -0.80600
H1625       H  0.80043323  0.39348789  0.02656596     0.18500
C1626       C  0.87118958  0.43881105  0.06154129    -0.25500
C1627       C  0.89419856  0.44806654  0.06372393     0.36600
C1628       C  0.89809650  0.47251641  0.06015231    -0.19500
C1629       C  0.87917786  0.48677061  0.05255866    -0.24700
C1630       C  0.85627925  0.47721546  0.04911192     0.27900
H1631       H  0.86821645  0.42041584  0.06600899     0.13700
N1632       N  0.91368929  0.43276159  0.06986223    -0.82000
H1633       H  0.88214143  0.50554263  0.04990351     0.18500
N1634       N  0.83738175  0.49219085  0.04078690    -0.80600
H1635       H  0.90788364  0.41528986  0.07189196     0.34200
H1636       H  0.92553012  0.43277047  0.05559277     0.38700
H1637       H  0.84345462  0.50948961  0.03814524     0.34100
H1638       H  0.83202057  0.48584858  0.02421933     0.30800
H1639       H  0.84034155  0.39036702  0.02318626     0.34100
H1640       H  0.85274652  0.41637379  0.01653398     0.30800
H1641       H  0.74857661  0.45048697  0.05693599     0.38700
H1642       H  0.76479311  0.45974322  0.08003194     0.34200
C1643       C  0.03140694  0.77603235  0.22823638    -0.19600
C1644       C  0.04173829  0.78800692  0.20887939     0.36700
C1645       C  0.05037372  0.77486079  0.18940166    -0.25500
C1646       C  0.04841442  0.75002521  0.18865877     0.03100
C1647       C  0.03943702  0.73811220  0.20883519     0.27900
C1648       C  0.03158817  0.75117073  0.22846321    -0.24700
N1649       N  0.04265545  0.81345670  0.20868485    -0.82000
H1650       H  0.05764813  0.78407411  0.17422041     0.13700
C1651       C  0.05390073  0.73709526  0.16614029     0.03100
N1652       N  0.03650966  0.71290564  0.20935330    -0.80600
H1653       H  0.02397169  0.74183419  0.24339479     0.18500
C1654       C  0.07157849  0.71955048  0.16586801    -0.25500
C1655       C  0.07637401  0.70632381  0.14522145     0.36600
C1656       C  0.06334759  0.71080251  0.12425277    -0.19500
C1657       C  0.04614557  0.72873944  0.12429636    -0.24700
C1658       C  0.04136300  0.74204368  0.14493910     0.27900
H1659       H  0.08193220  0.71637980  0.18174525     0.13700
N1660       N  0.09474221  0.68861684  0.14529080    -0.82000
H1661       H  0.03704838  0.73294692  0.10789552     0.18500
N1662       N  0.02434451  0.76103702  0.14423334    -0.80600
H1663       H  0.08665440  0.67221467  0.14225754     0.34200
H1664       H  0.10282756  0.68763312  0.16196521     0.38700
H1665       H  0.01645056  0.76213050  0.12747758     0.34100
H1666       H  0.01077968  0.75721168  0.15621484     0.30800
H1667       H  0.05315829  0.70485942  0.20819241     0.34100
H1668       H  0.02621888  0.70775053  0.19479115     0.30800
H1669       H  0.02522303  0.81980717  0.20828002     0.38700
H1670       H  0.05084891  0.81950222  0.19320956     0.34200
C1671       C  0.12556278  0.69698363  0.06370901    -0.19600
C1672       C  0.13040864  0.70589635  0.04083532     0.36700
C1673       C  0.15374239  0.71276689  0.03512652    -0.25500
C1674       C  0.17208057  0.71135699  0.05195756     0.03100
C1675       C  0.16747797  0.70165626  0.07442945     0.27900
C1676       C  0.14428330  0.69446608  0.08006105    -0.24700
N1677       N  0.11151449  0.70896238  0.02393061    -0.82000
H1678       H  0.15746976  0.72028816  0.01787709     0.13700
C1679       C  0.19549553  0.72188930  0.04636285     0.03100
N1680       N  0.18629817  0.69966561  0.09156298    -0.80600
H1681       H  0.14061011  0.68743851  0.09754639     0.18500
C1682       C  0.20193409  0.74340472  0.05710203    -0.25500
C1683       C  0.22210701  0.75599710  0.04952241     0.36600
C1684       C  0.23632379  0.74647361  0.03125419    -0.19500
C1685       C  0.23104476  0.72382847  0.02220927    -0.24700
C1686       C  0.21045322  0.71167717  0.02920855     0.27900
H1687       H  0.19036445  0.75105585  0.07041587     0.13700
N1688       N  0.22738618  0.77892628  0.05934224    -0.82000
H1689       H  0.24211145  0.71646502  0.00832312     0.18500
N1690       N  0.20410925  0.68952374  0.01831078    -0.80600
H1691       H  0.21520414  0.78327916  0.07263519     0.34200
H1692       H  0.22518959  0.79147698  0.04591717     0.38700
H1693       H  0.21676480  0.68464129  0.00565606     0.34100
H1694       H  0.20448836  0.67654118  0.03149965     0.30800
H1695       H  0.17993643  0.69234290  0.10734118     0.34100
H1696       H  0.19879470  0.68773797  0.08479836     0.30800
H1697       H  0.09979417  0.72159201  0.03079857     0.38700
H1698       H  0.11808625  0.71597177  0.00810989     0.34200
C1699       C  0.98022624  0.77134620  0.22845915    -0.19600
C1700       C  0.97692890  0.77806163  0.20469512     0.36700
C1701       C  0.97027718  0.76088274  0.18795590    -0.25500
C1702       C  0.96684697  0.73717401  0.19456725     0.03100
C1703       C  0.96888789  0.73069405  0.21871127     0.27900
C1704       C  0.97525784  0.74802223  0.23543436    -0.24700
N1705       N  0.98122393  0.80210642  0.19759088    -0.82000
H1706       H  0.96820360  0.76586479  0.16951579     0.13700
C1707       C  0.96148565  0.71993718  0.17551636     0.03100
N1708       N  0.96540237  0.70679612  0.22678189    -0.80600
H1709       H  0.97783794  0.74291581  0.25377462     0.18500
C1710       C  0.97948373  0.71379683  0.15951227    -0.25500
C1711       C  0.97416909  0.70195773  0.13829150     0.36600
C1712       C  0.95051932  0.69532874  0.13334088    -0.19500
C1713       C  0.93300333  0.69918839  0.15074584    -0.24700
C1714       C  0.93812849  0.71201868  0.17150215     0.27900
H1715       H  0.99754982  0.71936741  0.16289588     0.13700
N1716       N  0.99248101  0.69850604  0.12105453    -0.82000
H1717       H  0.91486715  0.69372297  0.14729811     0.18500
N1718       N  0.91958313  0.71792128  0.18798974    -0.80600
H1719       H  0.00628450  0.68900427  0.12902718     0.34200
H1720       H  0.99893029  0.71514794  0.11622296     0.38700
H1721       H  0.90339382  0.71068168  0.18246047     0.34100
H1722       H  0.91746172  0.73632168  0.18777020     0.30800
H1723       H  0.98160065  0.70081940  0.23362186     0.34100
H1724       H  0.96104183  0.69538761  0.21286638     0.30800
H1725       H  0.96869041  0.81278378  0.20613780     0.38700
H1726       H  0.97837819  0.80408259  0.17937780     0.34200
C1727       C  0.79832799  0.78932315  0.05068951    -0.19600
C1728       C  0.81693182  0.79512069  0.06661004     0.36700
C1729       C  0.83481058  0.77829377  0.07103716    -0.25500
C1730       C  0.83462916  0.75597996  0.05984831     0.03100
C1731       C  0.81462881  0.74945162  0.04629247     0.27900
C1732       C  0.79651087  0.76596965  0.04226728    -0.24700
N1733       N  0.81842601  0.81772157  0.07833964    -0.82000
H1734       H  0.84945656  0.78301790  0.08261120     0.13700
C1735       C  0.85570819  0.74007922  0.06178320     0.03100
N1736       N  0.81324096  0.72655296  0.03539635    -0.80600
H1737       H  0.78196372  0.76118211  0.03058289     0.18500
C1738       C  0.85286421  0.71661024  0.06954538    -0.25500
C1739       C  0.87256574  0.70149975  0.07226763     0.36600
C1740       C  0.89550780  0.70994075  0.06694209    -0.19500
C1741       C  0.89834750  0.73310364  0.05859931    -0.24700
C1742       C  0.87872014  0.74822316  0.05604213     0.27900
H1743       H  0.83533035  0.71032525  0.07431367     0.13700
N1744       N  0.86959669  0.67801326  0.08159700    -0.82000
H1745       H  0.91603219  0.73984633  0.05512247     0.18500
N1746       N  0.88229949  0.77195897  0.04788485    -0.80600
H1747       H  0.85166557  0.67459504  0.08500198     0.34200
H1748       H  0.87487207  0.66606752  0.06842707     0.38700
H1749       H  0.89379660  0.78045732  0.05974131     0.34100
H1750       H  0.89076064  0.77112802  0.03142056     0.30800
H1751       H  0.81147024  0.72887815  0.01709766     0.34100
H1752       H  0.79782796  0.71824500  0.04150813     0.30800
H1753       H  0.80483335  0.82905712  0.07296990     0.38700
H1754       H  0.83444643  0.82575041  0.07363671     0.34200
C1755       C  0.93634729  0.69695811  0.89785916    -0.19600
C1756       C  0.95825935  0.70208165  0.88706342     0.36700
C1757       C  0.95869986  0.71126718  0.86397091    -0.25500
C1758       C  0.93754396  0.71589971  0.85162365     0.03100
C1759       C  0.91567713  0.70884410  0.86151385     0.27900
C1760       C  0.91529711  0.69947877  0.88461579    -0.24700
N1761       N  0.97996357  0.69936501  0.90003883    -0.82000
H1762       H  0.97557011  0.71595983  0.85609048     0.13700
C1763       C  0.93884142  0.72913468  0.82894624     0.03100
N1764       N  0.89403404  0.71133364  0.84817390    -0.80600
H1765       H  0.89842723  0.69521153  0.89280344     0.18500
C1766       C  0.94872113  0.71772416  0.80921599    -0.25500
C1767       C  0.95384627  0.73016176  0.78837645     0.36600
C1768       C  0.94910213  0.75479264  0.78721111    -0.19500
C1769       C  0.93726391  0.76576127  0.80613507    -0.24700
C1770       C  0.93256180  0.75344806  0.82722167     0.27900
H1771       H  0.95331845  0.69911037  0.81032977     0.13700
N1772       N  0.96429289  0.71733694  0.76896357    -0.82000
H1773       H  0.93385750  0.78464884  0.80546830     0.18500
N1774       N  0.92323530  0.76674267  0.84691001    -0.80600
H1775       H  0.98102793  0.71140499  0.77438058     0.34200
H1776       H  0.96674062  0.72810408  0.75414151     0.38700
H1777       H  0.90606997  0.77220562  0.84239149     0.34100
H1778       H  0.92184007  0.75654881  0.86223707     0.30800
H1779       H  0.87964811  0.70467420  0.85779188     0.34100
H1780       H  0.89076317  0.72938117  0.84580811     0.30800
H1781       H  0.99060844  0.68731232  0.89083450     0.38700
H1782       H  0.98866625  0.71572622  0.90044507     0.34200
C1783       C  0.90530616  0.72653945  0.97392630    -0.19600
C1784       C  0.88646130  0.71917262  0.98865132     0.36700
C1785       C  0.86836548  0.73538968  0.99443569    -0.25500
C1786       C  0.86838901  0.75851414  0.98524595     0.03100
C1787       C  0.88787354  0.76624735  0.97167790     0.27900
C1788       C  0.90636430  0.75034752  0.96664094    -0.24700
N1789       N  0.88507473  0.69504868  0.99663967    -0.82000
H1790       H  0.85367166  0.72971041  0.00538615     0.13700
C1791       C  0.84766182  0.77422723  0.98956861     0.03100
N1792       N  0.88824018  0.78982811  0.96208575    -0.80600
H1793       H  0.92090439  0.75606381  0.95544501     0.18500
C1794       C  0.85102641  0.79593064  0.00119166    -0.25500
C1795       C  0.83169248  0.81014626  0.00759788     0.36600
C1796       C  0.80833193  0.80231102  0.00249805    -0.19500
C1797       C  0.80508212  0.78176751  0.98885978    -0.24700
C1798       C  0.82457698  0.76760840  0.98231406     0.27900
H1799       H  0.86879584  0.80155893  0.00601160     0.13700
N1800       N  0.83644778  0.83229975  0.01928010    -0.82000
H1801       H  0.78720003  0.77592591  0.98475541     0.18500
N1802       N  0.82102617  0.74624244  0.96886289    -0.80600
H1803       H  0.84535724  0.82865877  0.03509719     0.34200
H1804       H  0.82083164  0.84131511  0.02354265     0.38700
H1805       H  0.80299168  0.74380562  0.96511471     0.34100
H1806       H  0.82959402  0.74838702  0.95256982     0.30800
H1807       H  0.90381455  0.79269034  0.95242486     0.34100
H1808       H  0.87415519  0.79120430  0.95005304     0.30800
H1809       H  0.88239166  0.68430898  0.98174693     0.38700
H1810       H  0.87029330  0.69267725  0.00759423     0.34200
C1811       C  0.22702371  0.76099950  0.98316199    -0.19600
C1812       C  0.22470895  0.74277307  0.96599253     0.36700
C1813       C  0.20187302  0.73486658  0.95955528    -0.25500
C1814       C  0.18133159  0.74413953  0.97033915     0.03100
C1815       C  0.18382788  0.76225327  0.98737897     0.27900
C1816       C  0.20639674  0.77114734  0.99279808    -0.24700
N1817       N  0.24489006  0.73088983  0.95586493    -0.82000
H1818       H  0.20019692  0.72077120  0.94658569     0.13700
C1819       C  0.15753512  0.73397409  0.96453094     0.03100
N1820       N  0.16366313  0.77060798  0.00041892    -0.80600
H1821       H  0.20795746  0.78484631  0.00619166     0.18500
C1822       C  0.15399005  0.70937929  0.96613239    -0.25500
C1823       C  0.13174841  0.69915961  0.96110327     0.36600
C1824       C  0.11237540  0.71371883  0.95485186    -0.19500
C1825       C  0.11594510  0.73833409  0.95332179    -0.24700
C1826       C  0.13835416  0.74853268  0.95754021     0.27900
H1827       H  0.16860271  0.69800030  0.97131688     0.13700
N1828       N  0.12913686  0.67394205  0.96167535    -0.82000
H1829       H  0.10122532  0.74965356  0.94831952     0.18500
N1830       N  0.14182405  0.77354160  0.95420269    -0.80600
H1831       H  0.14127512  0.66659869  0.94971996     0.34200
H1832       H  0.13363287  0.66813187  0.97869282     0.38700
H1833       H  0.15379099  0.77570096  0.94021216     0.34100
H1834       H  0.12597618  0.78171184  0.94902821     0.30800
H1835       H  0.16671568  0.76735304  0.01841794     0.34100
H1836       H  0.16248715  0.78894301  0.99811536     0.30800
H1837       H  0.26085995  0.73759319  0.96244365     0.38700
H1838       H  0.24477800  0.73425150  0.93764351     0.34200
C1839       C  0.04463034  0.71338091  0.89808058    -0.19600
C1840       C  0.04280124  0.73818085  0.89539580     0.36700
C1841       C  0.03512606  0.74768484  0.87371966    -0.25500
C1842       C  0.02743866  0.73308598  0.85501553     0.03100
C1843       C  0.02840793  0.70823173  0.85807190     0.27900
C1844       C  0.03734248  0.69862310  0.87935934    -0.24700
N1845       N  0.04863049  0.75365739  0.91484581    -0.82000
H1846       H  0.03496612  0.76673377  0.87151856     0.13700
C1847       C  0.01785928  0.74431656  0.83288703     0.03100
N1848       N  0.01988417  0.69267487  0.83985849    -0.80600
H1849       H  0.03856277  0.67956430  0.88126285     0.18500
C1850       C  0.02562353  0.73663706  0.81037918    -0.25500
C1851       C  0.01630747  0.74650826  0.78931908     0.36600
C1852       C  0.99935290  0.76481767  0.79081423    -0.19500
C1853       C  0.99318642  0.77378475  0.81317457    -0.24700
C1854       C  0.00133159  0.76319132  0.83412758     0.27900
H1855       H  0.03883284  0.72273962  0.80920257     0.13700
N1856       N  0.02323024  0.73734820  0.76656874    -0.82000
H1857       H  0.98058706  0.78825372  0.81424928     0.18500
N1858       N  0.99220772  0.77111760  0.85660758    -0.80600
H1859       H  0.03506896  0.72322178  0.76859590     0.34200
H1860       H  0.03256379  0.75070745  0.75779589     0.38700
H1861       H  0.98018826  0.78505664  0.85434428     0.34100
H1862       H  0.98261642  0.75716895  0.86407108     0.30800
H1863       H  0.00636045  0.68221495  0.84701812     0.34100
H1864       H  0.03381817  0.68146634  0.83491444     0.30800
H1865       H  0.03653667  0.75026315  0.92848260     0.38700
H1866       H  0.04628900  0.77138601  0.91005337     0.34200
loop_ 
_geom_bond_atom_site_label_1 
_geom_bond_atom_site_label_2 
_geom_bond_distance 
_geom_bond_site_symmetry_2 
_ccdc_geom_bond_type 
C1            C2   1.409       .  A
C1            C6   1.402       .  A
C1         C1824   1.493       .  S
C2            C3   1.409       .  A
C2            H7   1.084       .  S
C3            C4   1.410       .  A
C3           C75   1.479       .  S
C4            C5   1.408       .  A
C4            H8   1.084       .  S
C5            C6   1.402       .  A
C5         C1839   1.490       .  S
C6            H9   1.084       .  S
C10          C11   1.400       .  A
C10          C15   1.410       .  A
C10        C1783   1.487       .  S
C11          C12   1.395       .  A
C11          H16   1.085       .  S
C12          C13   1.404       .  A
C12        C1755   1.483       .  S
C13          C14   1.409       .  A
C13          H17   1.084       .  S
C14          C15   1.412       .  A
C14          C81   1.479       .  S
C15          H18   1.084       .  S
C19          C20   1.406       .  A
C19          C24   1.401       .  A
C19        C1712   1.488       .  S
C20          C21   1.406       .  A
C20          H25   1.083       .  S
C21          C22   1.409       .  A
C21          C98   1.472       .  S
C22          C23   1.405       .  A
C22          H26   1.084       .  S
C23          C24   1.395       .  A
C23        C1740   1.476       .  S
C24          H27   1.085       .  S
C28          C29   1.399       .  A
C28          C33   1.413       .  A
C28        C1656   1.488       .  S
C29          C30   1.400       .  A
C29          H34   1.085       .  S
C30          C31   1.404       .  A
C30        C1671   1.485       .  S
C31          C32   1.407       .  A
C31          H35   1.084       .  S
C32          C33   1.413       .  A
C32         C104   1.480       .  S
C33          H36   1.083       .  S
C37          C38   1.394       .  A
C37          C42   1.399       .  A
C37        C1587   1.473       .  S
C38          C39   1.398       .  A
C38          H43   1.085       .  S
C39          C40   1.411       .  A
C39        C1628   1.486       .  S
C40          C41   1.412       .  A
C40          H44   1.084       .  S
C41          C42   1.405       .  A
C41         C101   1.470       .  S
C42          H45   1.084       .  S
C46          C47   1.409       .  A
C46          C51   1.396       .  A
C46        C1531   1.484       .  S
C47          C48   1.412       .  A
C47          H52   1.084       .  S
C48          C49   1.404       .  A
C48          C78   1.471       .  S
C49          C50   1.401       .  A
C49          H53   1.084       .  S
C50          C51   1.396       .  A
C50        C1559   1.472       .  S
C51          H54   1.085       .  S
C55          C56   1.403       .  A
C55          C60   1.412       .  A
C55        C1488   1.498       .  S
C56          C57   1.405       .  A
C56          H61   1.081       .  S
C57          C58   1.414       .  A
C57        C1516   1.507       .  S
C58          C59   1.413       .  A
C58          H62   1.083       .  S
C59          C60   1.409       .  A
C59          C84   1.487       .  S
C60          H63   1.083       .  S
C64          C65   1.405       .  A
C64          C69   1.418       .  A
C64        C1419   1.499       .  S
C65          C66   1.395       .  A
C65          H70   1.084       .  S
C66          C67   1.394       .  A
C66        C1460   1.468       .  S
C67          C68   1.399       .  A
C67          H71   1.085       .  S
C68          C69   1.416       .  A
C68          C95   1.474       .  S
C69          H72   1.083       .  S
O73         Zr85   2.443       .  S
O73          C75   1.287       .  A
O74        Zr111   2.455   1_556  S
O74          C75   1.292       .  A
O76         Zr88   2.441       .  S
O76          C78   1.288       .  A
O77        Zr112   2.441   1_656  S
O77          C78   1.289       .  A
O79         Zr88   2.449       .  S
O79          C81   1.290       .  A
O80        Zr111   2.440   1_656  S
O80          C81   1.289       .  A
O82         Zr85   2.442       .  S
O82          C84   1.287       .  A
O83        Zr112   2.471   1_556  S
O83          C84   1.295       .  A
Zr85         O86   2.434       .  S
Zr85         O87   2.437       .  S
Zr85         O91   2.375       .  S
Zr85         O92   2.375       .  S
Zr85        O115   2.378   1_556  S
Zr85        O117   2.374   1_556  S
O86         H129   0.990       .  S
O87         H128   0.990       .  S
O87         H132   0.990       .  S
Zr88         O89   2.434       .  S
Zr88         O90   2.434       .  S
Zr88         O92   2.373   1_655  S
Zr88         O91   2.369   1_655  S
Zr88        O116   2.367   1_556  S
Zr88        O118   2.370   1_556  S
O89         H130   0.990       .  S
O89         H133   0.990       .  S
O90         H123   0.990       .  S
O91        Zr111   2.389   1_556  S
O92        Zr112   2.393   1_556  S
O92         H119   0.966       .  S
O93        Zr105   2.446       .  S
O93          C95   1.288       .  A
O94        Zr112   2.449       .  S
O94          C95   1.290       .  A
O96        Zr108   2.436       .  S
O96          C98   1.286       .  A
O97        Zr111   2.444   1_655  S
O97          C98   1.290       .  A
O99        Zr108   2.442       .  S
O99         C101   1.287       .  A
O100       Zr112   2.439   1_655  S
O100        C101   1.289       .  A
O102       Zr105   2.445       .  S
O102        C104   1.288       .  A
O103       Zr111   2.454       .  S
O103        C104   1.292       .  A
Zr105       O106   2.436       .  S
Zr105       O107   2.435       .  S
Zr105       O113   2.372       .  S
Zr105       O114   2.375       .  S
Zr105       O117   2.372       .  S
Zr105       O115   2.380       .  S
O106        H126   0.990       .  S
O106        H131   0.990       .  S
O107        H127   0.990       .  S
Zr108       O109   2.434       .  S
Zr108       O110   2.435       .  S
Zr108       O114   2.375   1_655  S
Zr108       O113   2.366   1_655  S
Zr108       O118   2.365       .  S
Zr108       O116   2.366       .  S
O109        H125   0.990       .  S
O110        H124   0.990       .  S
O110        H134   0.990       .  S
Zr111       O114   2.389       .  S
Zr111       O116   2.389   1_455  S
Zr111       O117   2.391       .  S
Zr112       O113   2.396       .  S
Zr112       O115   2.391       .  S
Zr112       O118   2.387   1_455  S
O113        H121   0.965       .  S
O116        H120   0.965       .  S
O117        H122   0.966       .  S
C135        C136   1.392       .  A
C135        C140   1.400       .  A
C135       C1376   1.475       .  S
C136        C137   1.401       .  A
C136        H141   1.084       .  S
C137        C138   1.415       .  A
C137       C1391   1.493       .  S
C138        C139   1.412       .  A
C138        H142   1.083       .  S
C139        C140   1.408       .  A
C139        C209   1.477       .  S
C140        H143   1.084       .  S
C144        C145   1.396       .  A
C144        C149   1.403       .  A
C144       C1348   1.476       .  S
C145        C146   1.399       .  A
C145        H150   1.085       .  S
C146        C147   1.409       .  A
C146       C1307   1.484   1_545  S
C147        C148   1.410       .  A
C147        H151   1.084       .  S
C148        C149   1.409       .  A
C148        C215   1.476       .  S
C149        H152   1.084       .  S
C153        C154   1.415       .  A
C153        C158   1.403       .  A
C153       C1264   1.496       .  S
C154        C155   1.413       .  A
C154        H159   1.083       .  S
C155        C156   1.407       .  A
C155        C232   1.482       .  S
C156        C157   1.404       .  A
C156        H160   1.084       .  S
C157        C158   1.398       .  A
C157       C1292   1.487       .  S
C158        H161   1.083       .  S
C162        C163   1.401       .  A
C162        C167   1.395       .  A
C162       C1195   1.477       .  S
C163        C164   1.406       .  A
C163        H168   1.084       .  S
C164        C165   1.413       .  A
C164        C238   1.475       .  S
C165        C166   1.414       .  A
C165        H169   1.083       .  S
C166        C167   1.405       .  A
C166       C1223   1.501       .  S
C167        H170   1.084       .  S
C171        C172   1.393       .  A
C171        C176   1.403       .  A
C171       C1152   1.478       .  S
C172        C173   1.395       .  A
C172        H177   1.085       .  S
C173        C174   1.410       .  A
C173       C1167   1.483       .  S
C174        C175   1.413       .  A
C174        H178   1.084       .  S
C175        C176   1.411       .  A
C175        C235   1.482       .  S
C176        H179   1.084       .  S
C180        C181   1.410       .  A
C180        C185   1.395       .  A
C180       C1083   1.485       .  S
C181        C182   1.412       .  A
C181        H186   1.084       .  S
C182        C183   1.411       .  A
C182        C212   1.479       .  S
C183        C184   1.403   1_545  A
C183        H187   1.084       .  S
C184        C185   1.396   1_565  A
C184       C1124   1.484       .  S
C185        H188   1.085   1_545  S
C189        C190   1.410       .  A
C189        C194   1.401       .  A
C189       C1027   1.491       .  S
C190        C191   1.411       .  A
C190        H195   1.084       .  S
C191        C192   1.412       .  A
C191        C218   1.481       .  S
C192        C193   1.408       .  A
C192        H196   1.084       .  S
C193        C194   1.396       .  A
C193       C1055   1.485   1_545  S
C194        H197   1.084       .  S
C198        C199   1.401       .  A
C198        C203   1.406       .  A
C198       C1012   1.497       .  S
C199        C200   1.401       .  A
C199        H204   1.084       .  S
C200        C201   1.408       .  A
C200        C971   1.490       .  S
C201        C202   1.407       .  A
C201        H205   1.083       .  S
C202        C203   1.410       .  A
C202        C229   1.475       .  S
C203        H206   1.082       .  S
O207       Zr219   2.446       .  S
O207        C209   1.288       .  A
O208       Zr245   2.452       .  S
O208        C209   1.291       .  A
O210       Zr222   2.443       .  S
O210        C212   1.288       .  A
O211       Zr246   2.446   1_556  S
O211        C212   1.290       .  A
O213       Zr222   2.433       .  S
O213        C215   1.286       .  A
O214       Zr245   2.456   1_556  S
O214        C215   1.292       .  A
O216       Zr219   2.453       .  S
O216        C218   1.289       .  A
O217       Zr246   2.448       .  S
O217        C218   1.290       .  A
Zr219       O220   2.434       .  S
Zr219       O221   2.436       .  S
Zr219       O225   2.378       .  S
Zr219       O226   2.369       .  S
Zr219       O249   2.375       .  S
Zr219       O251   2.371       .  S
O220        H263   0.990       .  S
O221        H262   0.990       .  S
O221        H266   0.990       .  S
Zr222       O223   2.435       .  S
Zr222       O224   2.435       .  S
Zr222       O226   2.371   1_556  S
Zr222       O225   2.377   1_556  S
Zr222       O250   2.375       .  S
Zr222       O252   2.374       .  S
O223        H264   0.990       .  S
O223        H267   0.990       .  S
O224        H257   0.990       .  S
O225       Zr245   2.392       .  S
O226       Zr246   2.386       .  S
O226        H253   0.966       .  S
O227       Zr239   2.445       .  S
O227        C229   1.288       .  A
O228       Zr246   2.441       .  S
O228        C229   1.290       .  A
O230       Zr242   2.445       .  S
O230        C232   1.288       .  A
O231       Zr245   2.459   1_556  S
O231        C232   1.292       .  A
O233       Zr242   2.461       .  S
O233        C235   1.292       .  A
O234       Zr246   2.435   1_556  S
O234        C235   1.289       .  A
O236       Zr239   2.444       .  S
O236        C238   1.288       .  A
O237       Zr245   2.448       .  S
O237        C238   1.290       .  A
Zr239       O240   2.436       .  S
Zr239       O241   2.434       .  S
Zr239       O247   2.366       .  S
Zr239       O248   2.376       .  S
Zr239       O251   2.364       .  S
Zr239       O249   2.377       .  S
O240        H260   0.990       .  S
O240        H265   0.990       .  S
O241        H261   0.990       .  S
Zr242       O243   2.436       .  S
Zr242       O244   2.434       .  S
Zr242       O248   2.378   1_556  S
Zr242       O247   2.361   1_556  S
Zr242       O252   2.378       .  S
Zr242       O250   2.378       .  S
O243        H259   0.990       .  S
O244        H258   0.990       .  S
O244        H268   0.990       .  S
Zr245       O248   2.392       .  S
Zr245       O250   2.397   1_554  S
Zr245       O251   2.393       .  S
Zr246       O247   2.392       .  S
Zr246       O249   2.390       .  S
Zr246       O252   2.392   1_554  S
O247        H255   0.964       .  S
O250        H254   0.966       .  S
O251        H256   0.966       .  S
C269        C270   1.396       .  A
C269        C274   1.404       .  A
C269        C928   1.473       .  S
C270        C271   1.394   1_545  A
C270        H275   1.085   1_545  S
C271        C272   1.401   1_565  A
C271        C943   1.470       .  S
C272        C273   1.408       .  A
C272        H276   1.084   1_455  S
C273        C274   1.406       .  A
C273        C349   1.470       .  S
C274        H277   1.084       .  S
C278        C279   1.403       .  A
C278        C283   1.408       .  A
C278        C887   1.496       .  S
C279        C280   1.402       .  A
C279        H284   1.083       .  S
C280        C281   1.412       .  A
C280        C859   1.500   1_545  S
C281        C282   1.413       .  A
C281        H285   1.083       .  S
C282        C283   1.408       .  A
C282        C343   1.479       .  S
C283        H286   1.084       .  S
C287        C288   1.407       .  A
C287        C292   1.402       .  A
C287        C803   1.494       .  S
C288        C289   1.408       .  A
C288        H293   1.084       .  S
C289        C290   1.407       .  A
C289        C372   1.477       .  S
C290        C291   1.413       .  A
C290        H294   1.082       .  S
C291        C292   1.407       .  A
C291        C831   1.506       .  S
C292        H295   1.081       .  S
C296        C297   1.396       .  A
C296        C301   1.404       .  A
C296        C760   1.489       .  S
C297        C298   1.400       .  A
C297        H302   1.084       .  S
C298        C299   1.410       .  A
C298        C775   1.495       .  S
C299        C300   1.410       .  A
C299        H303   1.082       .  S
C300        C301   1.413       .  A
C300        C366   1.479       .  S
C301        H304   1.084       .  S
C305        C306   1.405       .  A
C305        C310   1.397       .  A
C305        C704   1.477       .  S
C306        C307   1.408       .  A
C306        H311   1.084       .  S
C307        C308   1.408       .  A
C307        C363   1.474       .  S
C308        C309   1.407       .  A
C308        H312   1.084       .  S
C309        C310   1.398       .  A
C309        C719   1.486       .  S
C310        H313   1.085       .  S
C314        C315   1.410       .  A
C314        C319   1.405       .  A
C314        C635   1.499       .  S
C315        C316   1.409       .  A
C315        H320   1.084       .  S
C316        C317   1.409       .  A
C316        C352   1.480       .  S
C317        C318   1.410       .  A
C317        H321   1.083       .  S
C318        C319   1.403       .  A
C318        C663   1.497   1_545  S
C319        H322   1.082       .  S
C323        C324   1.395       .  A
C323        C328   1.405       .  A
C323        C592   1.479       .  S
C324        C325   1.401       .  A
C324        H329   1.084       .  S
C325        C326   1.409       .  A
C325        C607   1.494   1_545  S
C326        C327   1.412       .  A
C326        H330   1.084       .  S
C327        C328   1.409       .  A
C327        C346   1.475       .  S
C328        H331   1.084       .  S
C332        C333   1.402       .  A
C332        C337   1.393       .  A
C332        C523   1.476       .  S
C333        C334   1.410       .  A
C333        H338   1.084       .  S
C334        C335   1.410       .  A
C334        C369   1.475       .  S
C335        C336   1.408       .  A
C335        H339   1.084       .  S
C336        C337   1.398       .  A
C336        C551   1.481       .  S
C337        H340   1.085       .  S
O341       Zr353   2.442       .  S
O341        C343   1.288       .  A
O342       Zr379   2.458       .  S
O342        C343   1.293       .  A
O344       Zr356   2.431       .  S
O344        C346   1.284       .  A
O345       Zr380   2.457   1_455  S
O345        C346   1.292       .  A
O347       Zr356   2.437       .  S
O347        C349   1.287       .  A
O348       Zr379   2.431       .  S
O348        C349   1.287   1_655  A
O350       Zr353   2.459       .  S
O350        C352   1.291       .  A
O351       Zr380   2.442       .  S
O351        C352   1.290       .  A
Zr353       O354   2.434       .  S
Zr353       O355   2.435       .  S
Zr353       O359   2.369       .  S
Zr353       O360   2.370       .  S
Zr353       O383   2.369       .  S
Zr353       O385   2.383       .  S
O354        H397   0.990       .  S
O355        H396   0.990       .  S
O355        H400   0.990       .  S
Zr356       O357   2.437       .  S
Zr356       O358   2.435       .  S
Zr356       O360   2.375   1_455  S
Zr356       O359   2.362   1_455  S
Zr356       O384   2.373       .  S
Zr356       O386   2.374       .  S
O357        H398   0.990   1_455  S
O357        H401   0.990       .  S
O358        H391   0.990       .  S
O359       Zr379   2.384       .  S
O360       Zr380   2.391       .  S
O360        H387   0.966       .  S
O361       Zr373   2.437       .  S
O361        C363   1.287       .  A
O362       Zr380   2.451       .  S
O362        C363   1.292       .  A
O364       Zr376   2.426       .  S
O364        C366   1.285       .  A
O365       Zr379   2.459       .  S
O365        C366   1.293   1_655  A
O367       Zr376   2.442       .  S
O367        C369   1.287       .  A
O368       Zr380   2.440   1_455  S
O368        C369   1.289       .  A
O370       Zr373   2.454       .  S
O370        C372   1.290       .  A
O371       Zr379   2.439       .  S
O371        C372   1.288       .  A
Zr373       O374   2.437       .  S
Zr373       O375   2.434       .  S
Zr373       O381   2.377       .  S
Zr373       O382   2.365       .  S
Zr373       O385   2.366       .  S
Zr373       O383   2.376       .  S
O374        H394   0.990       .  S
O374        H399   0.990       .  S
O375        H395   0.990       .  S
Zr376       O377   2.434       .  S
Zr376       O378   2.434       .  S
Zr376       O382   2.373   1_455  S
Zr376       O381   2.365   1_455  S
Zr376       O386   2.367       .  S
Zr376       O384   2.380       .  S
O377        H393   0.990   1_455  S
O378        H392   0.990       .  S
O378        H402   0.990       .  S
Zr379       O382   2.383       .  S
Zr379       O384   2.393   1_655  S
Zr379       O385   2.394       .  S
Zr380       O381   2.391       .  S
Zr380       O383   2.391       .  S
Zr380       O386   2.383   1_655  S
O381        H389   0.966       .  S
O384        H388   0.967       .  S
O385        H390   0.967       .  S
C403        S404   1.799       .  S
C403        S407   1.802   1_655  S
C403        C411   1.352   1_655  D
S404        C405   1.789       .  S
C405        C406   1.348   1_655  D
C405        C691   1.488       .  S
C406        S407   1.796       .  S
C406        C536   1.489       .  S
C408        S412   1.796       .  S
C408        C409   1.346   1_455  D
C408       C1432   1.493       .  S
C409        S410   1.786       .  S
C409       C1600   1.479       .  S
S410        C411   1.800   1_655  S
C411        S412   1.805       .  S
C413        S414   1.801       .  S
C413        S417   1.801       .  S
C413        C421   1.351       .  D
S414        C415   1.792       .  S
C415        C416   1.347       .  D
C415        C579   1.488       .  S
C416        S417   1.787       .  S
C416        C564   1.482       .  S
C418        S422   1.787       .  S
C418        C419   1.346       .  D
C418        C984   1.483       .  S
C419        S420   1.792       .  S
C419       C1040   1.485       .  S
S420        C421   1.802       .  S
C421        S422   1.799       .  S
C423        S424   1.798       .  S
C423        S427   1.803   1_554  S
C423        C431   1.353       .  D
S424        C425   1.794       .  S
C425        C426   1.348   1_554  D
C425       C1447   1.484       .  S
C426        S427   1.791       .  S
C426       C1475   1.492       .  S
C428        S432   1.790       .  S
C428        C429   1.348   1_556  D
C428       C1139   1.484       .  S
C429        S430   1.795       .  S
C429        C999   1.490       .  S
S430        C431   1.803       .  S
C431        S432   1.797   1_554  S
C433        S434   1.800       .  S
C433        S437   1.803       .  S
C433        C441   1.356       .  D
S434        C435   1.794       .  S
C435        C436   1.352       .  D
C435       C1236   1.487       .  S
C436        S437   1.799       .  S
C436       C1363   1.498       .  S
C438        S442   1.797       .  S
C438        C439   1.350       .  D
C438        C648   1.492       .  S
C439        S440   1.794       .  S
C439        C732   1.489       .  S
S440        C441   1.803       .  S
C441        S442   1.803       .  S
C443        S444   1.801   1_655  S
C443        S447   1.805       .  S
C443        C451   1.357   1_655  D
S444        C445   1.798       .  S
C445        C446   1.347   1_455  D
C445        C620   1.483       .  S
C446        S447   1.795       .  S
C446        C676   1.494       .  S
C448        S452   1.792       .  S
C448        C449   1.348   1_655  D
C448       C1699   1.483       .  S
C449        S450   1.801       .  S
C449       C1643   1.497       .  S
S450        C451   1.807       .  S
C451        S452   1.800   1_455  S
C453        S454   1.802       .  S
C453        S457   1.803       .  S
C453        C461   1.353       .  D
S454        C455   1.794       .  S
C455        C456   1.345       .  D
C455        C915   1.485       .  S
C456        S457   1.787       .  S
C456        C788   1.484       .  S
C458        S462   1.786       .  S
C458        C459   1.344       .  D
C458       C1180   1.480       .  S
C459        S460   1.796       .  S
C459       C1096   1.488       .  S
S460        C461   1.804       .  S
C461        S462   1.799       .  S
C463        S464   1.797       .  S
C463        S467   1.806   1_655  S
C463        C471   1.354       .  D
S464        C465   1.787       .  S
C465        C466   1.346   1_655  D
C465       C1572   1.477       .  S
C466        S467   1.798       .  S
C466       C1503   1.494       .  S
C468        S472   1.798       .  S
C468        C469   1.347   1_455  D
C468        C747   1.486       .  S
C469        S470   1.787       .  S
C469        C816   1.487       .  S
S470        C471   1.802       .  S
C471        S472   1.802   1_655  S
C473        S474   1.802       .  S
C473        S477   1.803   1_554  S
C473        C481   1.354       .  D
S474        C475   1.793       .  S
C475        C476   1.344   1_554  D
C475       C1068   1.485       .  S
C476        S477   1.794       .  S
C476       C1111   1.486       .  S
C478        S482   1.797       .  S
C478        C479   1.349   1_556  D
C478       C1811   1.493       .  S
C479        S480   1.796       .  S
C479       C1684   1.492       .  S
S480        C481   1.802       .  S
C481        S482   1.802   1_554  S
C483        S484   1.804       .  S
C483        S487   1.802   1_554  S
C483        C491   1.356       .  D
S484        C485   1.799       .  S
C485        C486   1.347       .  D
C485       C1208   1.492       .  S
C486        S487   1.792   1_554  S
C486       C1251   1.487   1_554  S
C488        S492   1.791   1_554  S
C488        C489   1.347       .  D
C488       C1544   1.491   1_554  S
C489        S490   1.798       .  S
C489       C1615   1.489       .  S
S490        C491   1.804       .  S
C491        S492   1.804   1_554  S
C493        S494   1.805       .  S
C493        S497   1.803       .  S
C493        C501   1.357       .  D
S494        C495   1.797       .  S
C495        C496   1.349       .  D
C495       C1852   1.496       .  S
C496        S497   1.798       .  S
C496       C1768   1.491       .  S
C498        S502   1.799       .  S
C498        C499   1.349       .  D
C498        C872   1.495       .  S
C499        S500   1.795       .  S
C499        C956   1.485       .  S
S500        C501   1.801       .  S
C501        S502   1.804       .  S
C503        S504   1.799       .  S
C503        S507   1.798       .  S
C503        C511   1.353       .  D
S504        C505   1.795       .  S
C505        C506   1.350       .  D
C505       C1279   1.484       .  S
C506        S507   1.796       .  S
C506       C1335   1.495       .  S
C508        S512   1.791       .  S
C508        C509   1.346       .  D
C508        C900   1.485       .  S
C509        S510   1.793       .  S
C509        C844   1.485       .  S
S510        C511   1.802       .  S
C511        S512   1.801       .  S
C513        S514   1.804   1_554  S
C513        S517   1.801       .  S
C513        C521   1.354       .  D
S514        C515   1.792   1_556  S
C515        C516   1.345       .  D
C515       C1320   1.487       .  S
C516        S517   1.793       .  S
C516       C1404   1.484       .  S
C518        S522   1.795       .  S
C518        C519   1.348       .  D
C518       C1727   1.491       .  S
C519        S520   1.791   1_554  S
C519       C1796   1.486       .  S
S520        C521   1.801   1_556  S
C521        S522   1.805       .  S
C523        C524   1.411       .  A
C523        C528   1.407       .  A
C524        C525   1.395       .  A
C524        N529   1.432   1_455  S
C525        C526   1.399       .  A
C525        H530   1.078   1_455  S
C526        C527   1.410       .  A
C526        C531   1.481       .  S
C527        C528   1.402       .  A
C527        N532   1.432       .  S
C528        H533   1.084       .  S
N529        H549   1.045       .  S
N529        H550   1.045       .  S
C531        C534   1.400       .  A
C531        C538   1.419       .  A
N532        H547   1.045       .  S
N532        H548   1.045       .  S
C534        C535   1.401       .  A
C534        H539   1.084       .  S
C535        C536   1.418       .  A
C535        N540   1.438   1_455  S
C536        C537   1.401       .  A
C537        C538   1.403       .  A
C537        H541   1.084       .  S
C538        N542   1.439       .  S
N540        H543   1.045       .  S
N540        H544   1.044       .  S
N542        H545   1.045       .  S
N542        H546   1.043       .  S
C551        C552   1.409       .  A
C551        C556   1.405       .  A
C552        C553   1.406       .  A
C552        N557   1.438       .  S
C553        C554   1.406       .  A
C553        H558   1.081       .  S
C554        C555   1.409       .  A
C554        C559   1.487       .  S
C555        C556   1.403       .  A
C555        N560   1.438       .  S
C556        H561   1.084       .  S
N557        H577   1.046       .  S
N557        H578   1.046       .  S
C559        C562   1.403       .  A
C559        C566   1.412       .  A
N560        H575   1.046       .  S
N560        H576   1.046       .  S
C562        C563   1.399       .  A
C562        H567   1.083       .  S
C563        C564   1.414       .  A
C563        N568   1.437       .  S
C564        C565   1.402       .  A
C565        C566   1.405       .  A
C565        H569   1.084       .  S
C566        N570   1.437       .  S
N568        H571   1.044       .  S
N568        H572   1.044       .  S
N570        H573   1.046       .  S
N570        H574   1.045       .  S
C579        C580   1.417       .  A
C579        C584   1.405       .  A
C580        C581   1.402       .  A
C580        N585   1.439       .  S
C581        C582   1.402       .  A
C581        H586   1.084       .  S
C582        C583   1.408       .  A
C582        C587   1.481       .  S
C583        C584   1.405       .  A
C583        N588   1.437       .  S
C584        H589   1.084       .  S
N585        H605   1.042       .  S
N585        H606   1.045       .  S
C587        C590   1.400       .  A
C587        C594   1.413       .  A
N588        H603   1.046       .  S
N588        H604   1.045       .  S
C590        C591   1.404       .  A
C590        H595   1.084       .  S
C591        C592   1.414       .  A
C591        N596   1.438       .  S
C592        C593   1.399       .  A
C593        C594   1.406       .  A
C593        H597   1.084       .  S
C594        N598   1.436       .  S
N596        H599   1.046       .  S
N596        H600   1.045       .  S
N598        H601   1.046       .  S
N598        H602   1.045       .  S
C607        C608   1.419       .  A
C607        C612   1.405       .  A
C608        C609   1.405       .  A
C608        N613   1.438       .  S
C609        C610   1.397       .  A
C609        H614   1.084       .  S
C610        C611   1.409       .  A
C610        C615   1.479       .  S
C611        C612   1.407       .  A
C611        N616   1.435   1_455  S
C612        H617   1.083       .  S
N613        H633   1.045       .  S
N613        H634   1.046       .  S
C615        C618   1.402       .  A
C615        C622   1.411       .  A
N616        H631   1.045       .  S
N616        H632   1.043       .  S
C618        C619   1.410       .  A
C618        H623   1.083       .  S
C619        C620   1.412       .  A
C619        N624   1.437       .  S
C620        C621   1.399       .  A
C621        C622   1.401       .  A
C621        H625   1.084       .  S
C622        N626   1.438       .  S
N624        H627   1.046       .  S
N624        H628   1.045       .  S
N626        H629   1.046       .  S
N626        H630   1.045       .  S
C635        C636   1.414       .  A
C635        C640   1.407       .  A
C636        C637   1.400       .  A
C636        N641   1.433       .  S
C637        C638   1.401       .  A
C637        H642   1.081       .  S
C638        C639   1.417       .  A
C638        C643   1.497       .  S
C639        C640   1.413       .  A
C639        N644   1.438       .  S
C640        H645   1.083       .  S
N641        H661   1.046       .  S
N641        H662   1.046       .  S
C643        C646   1.411       .  A
C643        C650   1.420       .  A
N644        H659   1.045       .  S
N644        H660   1.044       .  S
C646        C647   1.413       .  A
C646        H651   1.083       .  S
C647        C648   1.409       .  A
C647        N652   1.437       .  S
C648        C649   1.401       .  A
C649        C650   1.394       .  A
C649        H653   1.083       .  S
C650        N654   1.434       .  S
N652        H655   1.046       .  S
N652        H656   1.045       .  S
N654        H657   1.042       .  S
N654        H658   1.043       .  S
C663        C664   1.413       .  A
C663        C668   1.408       .  A
C664        C665   1.410       .  A
C664        N669   1.437   1_565  S
C665        C666   1.407       .  A
C665        H670   1.084       .  S
C666        C667   1.417       .  A
C666        C671   1.495       .  S
C667        C668   1.404       .  A
C667        N672   1.439       .  S
C668        H673   1.084       .  S
N669        H689   1.045       .  S
N669        H690   1.046       .  S
C671        C674   1.405       .  A
C671        C678   1.411       .  A
N672        H687   1.046       .  S
N672        H688   1.042       .  S
C674        C675   1.405       .  A
C674        H679   1.084       .  S
C675        C676   1.417       .  A
C675        N680   1.438       .  S
C676        C677   1.404       .  A
C677        C678   1.410       .  A
C677        H681   1.084       .  S
C678        N682   1.437       .  S
N680        H683   1.045       .  S
N680        H684   1.043       .  S
N682        H685   1.046       .  S
N682        H686   1.046       .  S
C691        C692   1.408       .  A
C691        C696   1.401       .  A
C692        C693   1.409       .  A
C692        N697   1.437       .  S
C693        C694   1.408       .  A
C693        H698   1.083       .  S
C694        C695   1.419       .  A
C694        C699   1.490       .  S
C695        C696   1.394       .  A
C695        N700   1.435       .  S
C696        H701   1.084       .  S
N697        H717   1.045       .  S
N697        H718   1.045       .  S
C699        C702   1.403       .  A
C699        C706   1.418       .  A
N700        H715   1.043       .  S
N700        H716   1.042       .  S
C702        C703   1.398       .  A
C702        H707   1.082       .  S
C703        C704   1.405       .  A
C703        N708   1.433       .  S
C704        C705   1.402       .  A
C705        C706   1.409       .  A
C705        H709   1.084       .  S
C706        N710   1.439       .  S
N708        H711   1.046       .  S
N708        H712   1.046       .  S
N710        H713   1.046       .  S
N710        H714   1.043       .  S
C719        C720   1.410       .  A
C719        C724   1.409       .  A
C720        C721   1.405       .  A
C720        N725   1.438       .  S
C721        C722   1.401       .  A
C721        H726   1.080       .  S
C722        C723   1.407       .  A
C722        C727   1.480       .  S
C723        C724   1.407       .  A
C723        N728   1.438       .  S
C724        H729   1.084       .  S
N725        H745   1.046       .  S
N725        H746   1.044       .  S
C727        C730   1.402       .  A
C727        C734   1.411       .  A
N728        H743   1.046       .  S
N728        H744   1.044       .  S
C730        C731   1.407       .  A
C730        H735   1.084       .  S
C731        C732   1.411       .  A
C731        N736   1.437       .  S
C732        C733   1.401       .  A
C733        C734   1.406       .  A
C733        H737   1.084       .  S
C734        N738   1.438       .  S
N736        H739   1.046       .  S
N736        H740   1.045       .  S
N738        H741   1.046       .  S
N738        H742   1.044       .  S
C747        C748   1.418       .  A
C747        C752   1.400       .  A
C748        C749   1.408       .  A
C748        N753   1.438       .  S
C749        C750   1.402       .  A
C749        H754   1.083       .  S
C750        C751   1.413       .  A
C750        C755   1.481       .  S
C751        C752   1.394       .  A
C751        N756   1.433       .  S
C752        H757   1.084       .  S
N753        H773   1.043       .  S
N753        H774   1.044       .  S
C755        C758   1.397       .  A
C755        C762   1.410       .  A
N756        H771   1.045       .  S
N756        H772   1.046       .  S
C758        C759   1.403       .  A
C758        H763   1.084       .  S
C759        C760   1.418       .  A
C759        N764   1.438       .  S
C760        C761   1.402       .  A
C761        C762   1.408       .  A
C761        H765   1.083   1_455  S
C762        N766   1.435   1_455  S
N764        H767   1.046       .  S
N764        H768   1.045       .  S
N766        H769   1.046       .  S
N766        H770   1.041       .  S
C775        C776   1.407       .  A
C775        C780   1.409       .  A
C776        C777   1.407       .  A
C776        N781   1.430       .  S
C777        C778   1.408       .  A
C777        H782   1.080       .  S
C778        C779   1.412       .  A
C778        C783   1.494       .  S
C779        C780   1.401       .  A
C779        N784   1.438       .  S
C780        H785   1.083       .  S
N781        H801   1.044       .  S
N781        H802   1.045       .  S
C783        C786   1.406       .  A
C783        C790   1.412       .  A
N784        H799   1.046       .  S
N784        H800   1.046       .  S
C786        C787   1.399       .  A
C786        H791   1.083       .  S
C787        C788   1.415       .  A
C787        N792   1.439       .  S
C788        C789   1.402       .  A
C789        C790   1.404       .  A
C789        H793   1.084       .  S
C790        N794   1.432       .  S
N792        H795   1.045       .  S
N792        H796   1.043       .  S
N794        H797   1.046       .  S
N794        H798   1.046       .  S
C803        C804   1.413       .  A
C803        C808   1.407       .  A
C804        C805   1.409       .  A
C804        N809   1.438       .  S
C805        C806   1.408       .  A
C805        H810   1.083       .  S
C806        C807   1.411       .  A
C806        C811   1.495       .  S
C807        C808   1.405       .  A
C807        N812   1.438       .  S
C808        H813   1.084       .  S
N809        H829   1.046       .  S
N809        H830   1.046       .  S
C811        C814   1.407       .  A
C811        C818   1.413       .  A
N812        H827   1.046       .  S
N812        H828   1.046       .  S
C814        C815   1.402       .  A
C814        H819   1.083       .  S
C815        C816   1.414       .  A
C815        N820   1.438       .  S
C816        C817   1.402       .  A
C817        C818   1.406       .  A
C817        H821   1.084       .  S
C818        N822   1.437       .  S
N820        H823   1.045       .  S
N820        H824   1.043       .  S
N822        H825   1.046       .  S
N822        H826   1.045       .  S
C831        C832   1.416       .  A
C831        C836   1.410       .  A
C832        C833   1.408       .  A
C832        N837   1.438       .  S
C833        C834   1.409       .  A
C833        H838   1.077       .  S
C834        C835   1.415       .  A
C834        C839   1.508       .  S
C835        C836   1.404       .  A
C835        N840   1.438       .  S
C836        H841   1.081       .  S
N837        H857   1.046       .  S
N837        H858   1.046       .  S
C839        C842   1.411       .  A
C839        C846   1.421       .  A
N840        H855   1.046       .  S
N840        H856   1.046       .  S
C842        C843   1.401       .  A
C842        H847   1.081       .  S
C843        C844   1.402       .  A
C843        N848   1.433       .  S
C844        C845   1.400       .  A
C845        C846   1.410       .  A
C845        H849   1.084       .  S
C846        N850   1.437       .  S
N848        H851   1.045       .  S
N848        H852   1.045       .  S
N850        H853   1.046       .  S
N850        H854   1.045       .  S
C859        C860   1.414       .  A
C859        C864   1.409       .  A
C860        C861   1.414       .  A
C860        N865   1.437       .  S
C861        C862   1.409       .  A
C861        H866   1.083       .  S
C862        C863   1.412       .  A
C862        C867   1.499       .  S
C863        C864   1.405       .  A
C863        N868   1.438       .  S
C864        H869   1.084       .  S
N865        H885   1.045       .  S
N865        H886   1.046       .  S
C867        C870   1.405       .  A
C867        C874   1.415       .  A
N868        H883   1.046       .  S
N868        H884   1.045       .  S
C870        C871   1.405       .  A
C870        H875   1.083       .  S
C871        C872   1.410       .  A
C871        N876   1.438       .  S
C872        C873   1.403       .  A
C873        C874   1.413       .  A
C873        H877   1.083       .  S
C874        N878   1.437       .  S
N876        H879   1.045       .  S
N876        H880   1.045       .  S
N878        H881   1.045       .  S
N878        H882   1.046       .  S
C887        C888   1.415       .  A
C887        C892   1.406       .  A
C888        C889   1.400       .  A
C888        N893   1.439       .  S
C889        C890   1.404       .  A
C889        H894   1.083       .  S
C890        C891   1.418       .  A
C890        C895   1.501       .  S
C891        C892   1.412       .  A
C891        N896   1.437       .  S
C892        H897   1.083       .  S
N893        H913   1.046       .  S
N893        H914   1.046       .  S
C895        C898   1.408       .  A
C895        C902   1.424       .  A
N896        H911   1.046       .  S
N896        H912   1.043       .  S
C898        C899   1.395       .  A
C898        H903   1.083       .  S
C899        C900   1.411       .  A
C899        N904   1.438       .  S
C900        C901   1.402       .  A
C901        C902   1.408       .  A
C901        H905   1.084       .  S
C902        N906   1.439       .  S
N904        H907   1.046       .  S
N904        H908   1.044       .  S
N906        H909   1.046       .  S
N906        H910   1.043       .  S
C915        C916   1.415       .  A
C915        C920   1.401       .  A
C916        C917   1.402       .  A
C916        N921   1.438       .  S
C917        C918   1.405       .  A
C917        H922   1.084       .  S
C918        C919   1.418       .  A
C918        C923   1.484       .  S
C919        C920   1.399       .  A
C919        N924   1.440       .  S
C920        H925   1.082       .  S
N921        H941   1.043       .  S
N921        H942   1.046       .  S
C923        C926   1.406       .  A
C923        C930   1.408       .  A
N924        H939   1.045       .  S
N924        H940   1.042       .  S
C926        C927   1.407       .  A
C926        H931   1.083       .  S
C927        C928   1.408       .  A
C927        N932   1.438       .  S
C928        C929   1.402       .  A
C929        C930   1.398       .  A
C929        H933   1.084       .  S
C930        N934   1.433       .  S
N932        H935   1.046       .  S
N932        H936   1.046       .  S
N934        H937   1.046       .  S
N934        H938   1.046       .  S
C943        C944   1.406   1_455  A
C943        C948   1.404       .  A
C944        C945   1.401       .  A
C944        N949   1.437       .  S
C945        C946   1.401   1_655  A
C945        H950   1.081       .  S
C946        C947   1.407       .  A
C946        C951   1.476       .  S
C947        C948   1.407       .  A
C947        N952   1.437       .  S
C948        H953   1.084       .  S
N949        H969   1.045       .  S
N949        H970   1.045       .  S
C951        C954   1.401   1_455  A
C951        C958   1.417       .  A
N952        H967   1.046       .  S
N952        H968   1.046       .  S
C954        C955   1.405       .  A
C954        H959   1.084       .  S
C955        C956   1.411       .  A
C955        N960   1.437       .  S
C956        C957   1.399   1_655  A
C957        C958   1.399       .  A
C957        H961   1.084       .  S
C958        N962   1.439       .  S
N960        H963   1.045       .  S
N960        H964   1.046       .  S
N962        H965   1.046       .  S
N962        H966   1.043       .  S
C971        C972   1.411       .  A
C971        C976   1.406       .  A
C972        C973   1.411       .  A
C972        N977   1.437       .  S
C973        C974   1.411       .  A
C973        H978   1.083       .  S
C974        C975   1.411       .  A
C974        C979   1.494       .  S
C975        C976   1.398       .  A
C975        N980   1.439       .  S
C976        H981   1.084       .  S
N977        H997   1.045       .  S
N977        H998   1.046       .  S
C979        C982   1.406       .  A
C979        C986   1.413       .  A
N980        H995   1.046       .  S
N980        H996   1.045       .  S
C982        C983   1.396       .  A
C982        H987   1.083       .  S
C983        C984   1.412       .  A
C983        N988   1.438       .  S
C984        C985   1.403       .  A
C985        C986   1.409       .  A
C985        H989   1.084       .  S
C986        N990   1.437       .  S
N988        H991   1.044       .  S
N988        H992   1.043       .  S
N990        H993   1.046       .  S
N990        H994   1.045       .  S
C999       C1000   1.417       .  A
C999       C1004   1.404       .  A
C1000      C1001   1.399       .  A
C1000      N1005   1.439       .  S
C1001      C1002   1.401       .  A
C1001      H1006   1.084       .  S
C1002      C1003   1.415       .  A
C1002      C1007   1.482       .  S
C1003      C1004   1.406       .  A
C1003      N1008   1.438       .  S
C1004      H1009   1.084       .  S
N1005      H1025   1.043       .  S
N1005      H1026   1.046       .  S
C1007      C1010   1.403       .  A
C1007      C1014   1.404       .  A
N1008      H1023   1.046       .  S
N1008      H1024   1.044       .  S
C1010      C1011   1.411       .  A
C1010      H1015   1.083       .  S
C1011      C1012   1.416       .  A
C1011      N1016   1.436       .  S
C1012      C1013   1.410       .  A
C1013      C1014   1.402       .  A
C1013      H1017   1.084       .  S
C1014      N1018   1.438       .  S
N1016      H1019   1.045       .  S
N1016      H1020   1.044       .  S
N1018      H1021   1.046       .  S
N1018      H1022   1.045       .  S
C1027      C1028   1.419       .  A
C1027      C1032   1.403       .  A
C1028      C1029   1.406       .  A
C1028      N1033   1.438       .  S
C1029      C1030   1.396       .  A
C1029      H1034   1.084       .  S
C1030      C1031   1.411       .  A
C1030      C1035   1.480       .  S
C1031      C1032   1.400       .  A
C1031      N1036   1.429       .  S
C1032      H1037   1.084       .  S
N1033      H1053   1.045       .  S
N1033      H1054   1.046   1_545  S
C1035      C1038   1.401       .  A
C1035      C1042   1.411       .  A
N1036      H1051   1.043       .  S
N1036      H1052   1.045       .  S
C1038      C1039   1.405       .  A
C1038      H1043   1.084       .  S
C1039      C1040   1.418       .  A
C1039      N1044   1.439       .  S
C1040      C1041   1.402       .  A
C1041      C1042   1.402       .  A
C1041      H1045   1.084       .  S
C1042      N1046   1.439       .  S
N1044      H1047   1.044       .  S
N1044      H1048   1.043       .  S
N1046      H1049   1.046       .  S
N1046      H1050   1.044       .  S
C1055      C1056   1.413       .  A
C1055      C1060   1.400       .  A
C1056      C1057   1.406       .  A
C1056      N1061   1.438       .  S
C1057      C1058   1.403       .  A
C1057      H1062   1.083       .  S
C1058      C1059   1.420       .  A
C1058      C1063   1.497       .  S
C1059      C1060   1.410       .  A
C1059      N1064   1.438       .  S
C1060      H1065   1.084       .  S
N1061      H1081   1.046       .  S
N1061      H1082   1.046       .  S
C1063      C1066   1.406       .  A
C1063      C1070   1.419       .  A
N1064      H1079   1.046       .  S
N1064      H1080   1.043       .  S
C1066      C1067   1.405       .  A
C1066      H1071   1.083       .  S
C1067      C1068   1.407       .  A
C1067      N1072   1.437       .  S
C1068      C1069   1.399       .  A
C1069      C1070   1.408       .  A
C1069      H1073   1.082       .  S
C1070      N1074   1.438       .  S
N1072      H1075   1.045       .  S
N1072      H1076   1.045       .  S
N1074      H1077   1.046       .  S
N1074      H1078   1.043       .  S
C1083      C1084   1.416       .  A
C1083      C1088   1.399       .  A
C1084      C1085   1.404       .  A
C1084      N1089   1.439       .  S
C1085      C1086   1.401       .  A
C1085      H1090   1.081       .  S
C1086      C1087   1.415       .  A
C1086      C1091   1.494       .  S
C1087      C1088   1.406       .  A
C1087      N1092   1.430       .  S
C1088      H1093   1.084       .  S
N1089      H1109   1.045       .  S
N1089      H1110   1.046       .  S
C1091      C1094   1.406       .  A
C1091      C1098   1.419       .  A
N1092      H1107   1.044       .  S
N1092      H1108   1.045       .  S
C1094      C1095   1.405       .  A
C1094      H1099   1.084       .  S
C1095      C1096   1.416       .  A
C1095      N1100   1.438       .  S
C1096      C1097   1.401       .  A
C1097      C1098   1.399       .  A
C1097      H1101   1.084       .  S
C1098      N1102   1.434       .  S
N1100      H1103   1.045       .  S
N1100      H1104   1.044       .  S
N1102      H1105   1.043       .  S
N1102      H1106   1.043       .  S
C1111      C1112   1.419       .  A
C1111      C1116   1.401       .  A
C1112      C1113   1.403       .  A
C1112      N1117   1.438       .  S
C1113      C1114   1.400       .  A
C1113      H1118   1.084       .  S
C1114      C1115   1.415       .  A
C1114      C1119   1.482       .  S
C1115      C1116   1.400       .  A
C1115      N1120   1.434       .  S
C1116      H1121   1.084       .  S
N1117      H1137   1.043       .  S
N1117      H1138   1.045   1_556  S
C1119      C1122   1.399       .  A
C1119      C1126   1.411       .  A
N1120      H1135   1.045       .  S
N1120      H1136   1.045       .  S
C1122      C1123   1.404       .  A
C1122      H1127   1.084       .  S
C1123      C1124   1.415       .  A
C1123      N1128   1.438       .  S
C1124      C1125   1.401       .  A
C1125      C1126   1.406       .  A
C1125      H1129   1.084       .  S
C1126      N1130   1.434   1_556  S
N1128      H1131   1.045       .  S
N1128      H1132   1.045       .  S
N1130      H1133   1.046       .  S
N1130      H1134   1.045       .  S
C1139      C1140   1.416       .  A
C1139      C1144   1.399       .  A
C1140      C1141   1.401       .  A
C1140      N1145   1.438       .  S
C1141      C1142   1.402       .  A
C1141      H1146   1.084       .  S
C1142      C1143   1.419       .  A
C1142      C1147   1.482       .  S
C1143      C1144   1.398       .  A
C1143      N1148   1.439       .  S
C1144      H1149   1.084       .  S
N1145      H1165   1.044       .  S
N1145      H1166   1.045       .  S
C1147      C1150   1.401       .  A
C1147      C1154   1.412       .  A
N1148      H1163   1.046       .  S
N1148      H1164   1.044       .  S
C1150      C1151   1.397       .  A
C1150      H1155   1.084       .  S
C1151      C1152   1.413       .  A
C1151      N1156   1.439       .  S
C1152      C1153   1.404       .  A
C1153      C1154   1.410       .  A
C1153      H1157   1.083       .  S
C1154      N1158   1.437       .  S
N1156      H1159   1.046   1_556  S
N1156      H1160   1.044   1_556  S
N1158      H1161   1.046       .  S
N1158      H1162   1.045       .  S
C1167      C1168   1.415       .  A
C1167      C1172   1.398       .  A
C1168      C1169   1.405       .  A
C1168      N1173   1.438       .  S
C1169      C1170   1.403       .  A
C1169      H1174   1.083       .  S
C1170      C1171   1.417       .  A
C1170      C1175   1.493       .  S
C1171      C1172   1.404       .  A
C1171      N1176   1.435       .  S
C1172      H1177   1.084       .  S
N1173      H1193   1.045       .  S
N1173      H1194   1.046       .  S
C1175      C1178   1.407       .  A
C1175      C1182   1.416       .  A
N1176      H1191   1.046       .  S
N1176      H1192   1.043       .  S
C1178      C1179   1.404       .  A
C1178      H1183   1.083       .  S
C1179      C1180   1.405       .  A
C1179      N1184   1.437       .  S
C1180      C1181   1.400       .  A
C1181      C1182   1.405       .  A
C1181      H1185   1.083       .  S
C1182      N1186   1.438       .  S
N1184      H1187   1.045       .  S
N1184      H1188   1.045       .  S
N1186      H1189   1.046       .  S
N1186      H1190   1.043       .  S
C1195      C1196   1.412       .  A
C1195      C1200   1.399       .  A
C1196      C1197   1.408       .  A
C1196      N1201   1.438       .  S
C1197      C1198   1.403       .  A
C1197      H1202   1.083       .  S
C1198      C1199   1.412       .  A
C1198      C1203   1.488       .  S
C1199      C1200   1.404       .  A
C1199      N1204   1.435       .  S
C1200      H1205   1.084       .  S
N1201      H1221   1.045       .  S
N1201      H1222   1.046       .  S
C1203      C1206   1.406       .  A
C1203      C1210   1.413       .  A
N1204      H1219   1.046       .  S
N1204      H1220   1.041       .  S
C1206      C1207   1.409       .  A
C1206      H1211   1.084       .  S
C1207      C1208   1.409       .  A
C1207      N1212   1.437       .  S
C1208      C1209   1.405       .  A
C1209      C1210   1.399       .  A
C1209      H1213   1.084       .  S
C1210      N1214   1.433       .  S
N1212      H1215   1.046       .  S
N1212      H1216   1.045       .  S
N1214      H1217   1.044       .  S
N1214      H1218   1.044       .  S
C1223      C1224   1.415       .  A
C1223      C1228   1.409       .  A
C1224      C1225   1.411       .  A
C1224      N1229   1.437       .  S
C1225      C1226   1.408       .  A
C1225      H1230   1.081       .  S
C1226      C1227   1.411       .  A
C1226      C1231   1.497       .  S
C1227      C1228   1.402       .  A
C1227      N1232   1.438       .  S
C1228      H1233   1.083       .  S
N1229      H1249   1.045       .  S
N1229      H1250   1.046       .  S
C1231      C1234   1.405       .  A
C1231      C1238   1.417       .  A
N1232      H1247   1.046       .  S
N1232      H1248   1.046       .  S
C1234      C1235   1.395       .  A
C1234      H1239   1.083       .  S
C1235      C1236   1.409       .  A
C1235      N1240   1.433       .  S
C1236      C1237   1.403       .  A
C1237      C1238   1.411       .  A
C1237      H1241   1.083       .  S
C1238      N1242   1.437       .  S
N1240      H1243   1.043       .  S
N1240      H1244   1.045       .  S
N1242      H1245   1.046       .  S
N1242      H1246   1.045       .  S
C1251      C1252   1.416       .  A
C1251      C1256   1.402       .  A
C1252      C1253   1.400       .  A
C1252      N1257   1.438   1_556  S
C1253      C1254   1.405       .  A
C1253      H1258   1.084       .  S
C1254      C1255   1.413       .  A
C1254      C1259   1.495       .  S
C1255      C1256   1.409       .  A
C1255      N1260   1.437       .  S
C1256      H1261   1.084       .  S
N1257      H1277   1.044       .  S
N1257      H1278   1.045       .  S
C1259      C1262   1.407       .  A
C1259      C1266   1.410       .  A
N1260      H1275   1.046       .  S
N1260      H1276   1.046       .  S
C1262      C1263   1.410       .  A
C1262      H1267   1.081       .  S
C1263      C1264   1.413       .  A
C1263      N1268   1.437       .  S
C1264      C1265   1.409       .  A
C1265      C1266   1.405       .  A
C1265      H1269   1.083       .  S
C1266      N1270   1.438       .  S
N1268      H1271   1.046       .  S
N1268      H1272   1.046       .  S
N1270      H1273   1.046       .  S
N1270      H1274   1.046       .  S
C1279      C1280   1.407       .  A
C1279      C1284   1.403       .  A
C1280      C1281   1.404       .  A
C1280      N1285   1.437       .  S
C1281      C1282   1.405       .  A
C1281      H1286   1.084       .  S
C1282      C1283   1.413       .  A
C1282      C1287   1.485       .  S
C1283      C1284   1.402       .  A
C1283      N1288   1.432       .  S
C1284      H1289   1.084       .  S
N1285      H1305   1.045       .  S
N1285      H1306   1.046       .  S
C1287      C1290   1.402       .  A
C1287      C1294   1.406       .  A
N1288      H1303   1.044       .  S
N1288      H1304   1.046       .  S
C1290      C1291   1.410       .  A
C1290      H1295   1.083       .  S
C1291      C1292   1.417       .  A
C1291      N1296   1.437       .  S
C1292      C1293   1.400       .  A
C1293      C1294   1.399       .  A
C1293      H1297   1.084       .  S
C1294      N1298   1.427       .  S
N1296      H1299   1.046       .  S
N1296      H1300   1.045       .  S
N1298      H1301   1.045       .  S
N1298      H1302   1.046       .  S
C1307      C1308   1.414       .  A
C1307      C1312   1.400       .  A
C1308      C1309   1.405       .  A
C1308      N1313   1.438       .  S
C1309      C1310   1.403       .  A
C1309      H1314   1.083       .  S
C1310      C1311   1.414       .  A
C1310      C1315   1.493       .  S
C1311      C1312   1.405       .  A
C1311      N1316   1.430   1_556  S
C1312      H1317   1.084   1_565  S
N1313      H1333   1.046       .  S
N1313      H1334   1.046       .  S
C1315      C1318   1.407       .  A
C1315      C1322   1.416       .  A
N1316      H1331   1.044       .  S
N1316      H1332   1.045       .  S
C1318      C1319   1.407       .  A
C1318      H1323   1.083       .  S
C1319      C1320   1.407   1_556  A
C1319      N1324   1.437       .  S
C1320      C1321   1.402   1_554  A
C1321      C1322   1.406       .  A
C1321      H1325   1.084   1_556  S
C1322      N1326   1.439       .  S
N1324      H1327   1.046       .  S
N1324      H1328   1.045       .  S
N1326      H1329   1.046       .  S
N1326      H1330   1.043   1_556  S
C1335      C1336   1.412       .  A
C1335      C1340   1.405       .  A
C1336      C1337   1.406       .  A
C1336      N1341   1.437       .  S
C1337      C1338   1.404       .  A
C1337      H1342   1.084       .  S
C1338      C1339   1.410       .  A
C1338      C1343   1.490       .  S
C1339      C1340   1.404       .  A
C1339      N1344   1.432       .  S
C1340      H1345   1.082       .  S
N1341      H1361   1.045       .  S
N1341      H1362   1.046       .  S
C1343      C1346   1.404       .  A
C1343      C1350   1.420       .  A
N1344      H1359   1.045       .  S
N1344      H1360   1.045       .  S
C1346      C1347   1.401       .  A
C1346      H1351   1.084       .  S
C1347      C1348   1.406       .  A
C1347      N1352   1.438       .  S
C1348      C1349   1.403       .  A
C1349      C1350   1.408       .  A
C1349      H1353   1.084       .  S
C1350      N1354   1.439       .  S
N1352      H1355   1.046       .  S
N1352      H1356   1.045       .  S
N1354      H1357   1.046       .  S
N1354      H1358   1.043       .  S
C1363      C1364   1.407       .  A
C1363      C1368   1.405       .  A
C1364      C1365   1.405       .  A
C1364      N1369   1.431       .  S
C1365      C1366   1.407       .  A
C1365      H1370   1.084       .  S
C1366      C1367   1.418       .  A
C1366      C1371   1.489       .  S
C1367      C1368   1.402       .  A
C1367      N1372   1.438       .  S
C1368      H1373   1.083       .  S
N1369      H1389   1.045       .  S
N1369      H1390   1.046       .  S
C1371      C1374   1.407       .  A
C1371      C1378   1.421       .  A
N1372      H1387   1.045       .  S
N1372      H1388   1.041       .  S
C1374      C1375   1.409       .  A
C1374      H1379   1.084       .  S
C1375      C1376   1.407       .  A
C1375      N1380   1.437       .  S
C1376      C1377   1.398       .  A
C1377      C1378   1.398       .  A
C1377      H1381   1.085       .  S
C1378      N1382   1.438       .  S
N1380      H1383   1.045       .  S
N1380      H1384   1.046       .  S
N1382      H1385   1.045       .  S
N1382      H1386   1.040       .  S
C1391      C1392   1.416       .  A
C1391      C1396   1.402   1_545  A
C1392      C1393   1.403   1_545  A
C1392      N1397   1.439       .  S
C1393      C1394   1.403       .  A
C1393      H1398   1.082       .  S
C1394      C1395   1.418       .  A
C1394      C1399   1.500       .  S
C1395      C1396   1.408       .  A
C1395      N1400   1.435       .  S
C1396      H1401   1.083       .  S
N1397      H1417   1.046       .  S
N1397      H1418   1.046       .  S
C1399      C1402   1.409       .  A
C1399      C1406   1.418       .  A
N1400      H1415   1.046       .  S
N1400      H1416   1.043       .  S
C1402      C1403   1.404       .  A
C1402      H1407   1.083       .  S
C1403      C1404   1.413       .  A
C1403      N1408   1.438       .  S
C1404      C1405   1.399       .  A
C1405      C1406   1.402       .  A
C1405      H1409   1.084       .  S
C1406      N1410   1.438       .  S
N1408      H1411   1.045       .  S
N1408      H1412   1.043       .  S
N1410      H1413   1.046       .  S
N1410      H1414   1.043       .  S
C1419      C1420   1.417       .  A
C1419      C1424   1.404       .  A
C1420      C1421   1.406       .  A
C1420      N1425   1.439       .  S
C1421      C1422   1.404       .  A
C1421      H1426   1.082       .  S
C1422      C1423   1.420       .  A
C1422      C1427   1.505       .  S
C1423      C1424   1.414       .  A
C1423      N1428   1.438       .  S
C1424      H1429   1.083       .  S
N1425      H1445   1.046       .  S
N1425      H1446   1.046       .  S
C1427      C1430   1.410       .  A
C1427      C1434   1.419       .  A
N1428      H1443   1.045       .  S
N1428      H1444   1.044       .  S
C1430      C1431   1.406       .  A
C1430      H1435   1.083       .  S
C1431      C1432   1.414       .  A
C1431      N1436   1.437       .  S
C1432      C1433   1.402       .  A
C1433      C1434   1.406       .  A
C1433      H1437   1.084       .  S
C1434      N1438   1.439       .  S
N1436      H1439   1.045       .  S
N1436      H1440   1.043       .  S
N1438      H1441   1.046       .  S
N1438      H1442   1.043       .  S
C1447      C1448   1.409       .  A
C1447      C1452   1.404       .  A
C1448      C1449   1.405       .  A
C1448      N1453   1.437       .  S
C1449      C1450   1.402       .  A
C1449      H1454   1.084       .  S
C1450      C1451   1.406       .  A
C1450      C1455   1.475       .  S
C1451      C1452   1.402       .  A
C1451      N1456   1.437       .  S
C1452      H1457   1.084       .  S
N1453      H1473   1.045       .  S
N1453      H1474   1.046       .  S
C1455      C1458   1.402       .  A
C1455      C1462   1.418       .  A
N1456      H1471   1.046       .  S
N1456      H1472   1.045       .  S
C1458      C1459   1.404       .  A
C1458      H1463   1.084       .  S
C1459      C1460   1.407       .  A
C1459      N1464   1.437       .  S
C1460      C1461   1.398       .  A
C1461      C1462   1.397       .  A
C1461      H1465   1.084       .  S
C1462      N1466   1.438       .  S
N1464      H1467   1.046       .  S
N1464      H1468   1.046       .  S
N1466      H1469   1.045       .  S
N1466      H1470   1.041       .  S
C1475      C1476   1.417       .  A
C1475      C1480   1.403       .  A
C1476      C1477   1.400       .  A
C1476      N1481   1.438       .  S
C1477      C1478   1.404       .  A
C1477      H1482   1.083       .  S
C1478      C1479   1.415       .  A
C1478      C1483   1.497       .  S
C1479      C1480   1.411       .  A
C1479      N1484   1.437       .  S
C1480      H1485   1.084       .  S
N1481      H1501   1.044       .  S
N1481      H1502   1.045   1_556  S
C1483      C1486   1.406       .  A
C1483      C1490   1.412       .  A
N1484      H1499   1.046       .  S
N1484      H1500   1.046       .  S
C1486      C1487   1.409       .  A
C1486      H1491   1.082       .  S
C1487      C1488   1.414       .  A
C1487      N1492   1.438       .  S
C1488      C1489   1.408       .  A
C1489      C1490   1.408       .  A
C1489      H1493   1.083       .  S
C1490      N1494   1.438       .  S
N1492      H1495   1.046       .  S
N1492      H1496   1.046       .  S
N1494      H1497   1.045       .  S
N1494      H1498   1.046       .  S
C1503      C1504   1.416       .  A
C1503      C1508   1.405       .  A
C1504      C1505   1.402       .  A
C1504      N1509   1.438       .  S
C1505      C1506   1.403       .  A
C1505      H1510   1.084       .  S
C1506      C1507   1.416       .  A
C1506      C1511   1.489       .  S
C1507      C1508   1.409       .  A
C1507      N1512   1.438       .  S
C1508      H1513   1.084       .  S
N1509      H1529   1.043       .  S
N1509      H1530   1.045       .  S
C1511      C1514   1.398       .  A
C1511      C1518   1.408       .  A
N1512      H1527   1.046       .  S
N1512      H1528   1.044       .  S
C1514      C1515   1.409       .  A
C1514      H1519   1.084       .  S
C1515      C1516   1.423       .  A
C1515      N1520   1.438       .  S
C1516      C1517   1.408       .  A
C1517      C1518   1.410       .  A
C1517      H1521   1.082       .  S
C1518      N1522   1.435       .  S
N1520      H1523   1.046       .  S
N1520      H1524   1.045       .  S
N1522      H1525   1.045   1_455  S
N1522      H1526   1.041       .  S
C1531      C1532   1.408       .  A
C1531      C1536   1.408       .  A
C1532      C1533   1.407       .  A
C1532      N1537   1.437       .  S
C1533      C1534   1.403       .  A
C1533      H1538   1.077   1_556  S
C1534      C1535   1.406       .  A
C1534      C1539   1.485       .  S
C1535      C1536   1.406       .  A
C1535      N1540   1.437       .  S
C1536      H1541   1.084       .  S
N1537      H1557   1.045       .  S
N1537      H1558   1.044   1_556  S
C1539      C1542   1.401       .  A
C1539      C1546   1.418       .  A
N1540      H1555   1.046       .  S
N1540      H1556   1.046       .  S
C1542      C1543   1.402       .  A
C1542      H1547   1.084       .  S
C1543      C1544   1.417       .  A
C1543      N1548   1.438   1_556  S
C1544      C1545   1.403       .  A
C1545      C1546   1.404       .  A
C1545      H1549   1.084       .  S
C1546      N1550   1.439       .  S
N1548      H1551   1.045   1_554  S
N1548      H1552   1.044       .  S
N1550      H1553   1.045       .  S
N1550      H1554   1.043       .  S
C1559      C1560   1.408       .  A
C1559      C1564   1.399       .  A
C1560      C1561   1.398       .  A
C1560      N1565   1.438       .  S
C1561      C1562   1.402       .  A
C1561      H1566   1.084       .  S
C1562      C1563   1.425       .  A
C1562      C1567   1.484       .  S
C1563      C1564   1.402       .  A
C1563      N1568   1.440       .  S
C1564      H1569   1.084       .  S
N1565      H1585   1.046       .  S
N1565      H1586   1.046       .  S
C1567      C1570   1.406       .  A
C1567      C1574   1.417       .  A
N1568      H1583   1.045   1_655  S
N1568      H1584   1.042       .  S
C1570      C1571   1.396       .  A
C1570      H1575   1.084       .  S
C1571      C1572   1.412       .  A
C1571      N1576   1.438       .  S
C1572      C1573   1.401       .  A
C1573      C1574   1.400       .  A
C1573      H1577   1.084       .  S
C1574      N1578   1.439       .  S
N1576      H1579   1.045       .  S
N1576      H1580   1.044       .  S
N1578      H1581   1.046       .  S
N1578      H1582   1.043       .  S
C1587      C1588   1.407       .  A
C1587      C1592   1.405       .  A
C1588      C1589   1.401       .  A
C1588      N1593   1.438       .  S
C1589      C1590   1.403       .  A
C1589      H1594   1.080       .  S
C1590      C1591   1.407       .  A
C1590      C1595   1.479       .  S
C1591      C1592   1.403       .  A
C1591      N1596   1.438       .  S
C1592      H1597   1.084       .  S
N1593      H1613   1.044   1_655  S
N1593      H1614   1.046   1_655  S
C1595      C1598   1.402       .  A
C1595      C1602   1.411       .  A
N1596      H1611   1.046       .  S
N1596      H1612   1.046       .  S
C1598      C1599   1.404       .  A
C1598      H1603   1.084       .  S
C1599      C1600   1.408       .  A
C1599      N1604   1.437       .  S
C1600      C1601   1.400       .  A
C1601      C1602   1.403       .  A
C1601      H1605   1.084       .  S
C1602      N1606   1.438       .  S
N1604      H1607   1.046       .  S
N1604      H1608   1.046       .  S
N1606      H1609   1.046       .  S
N1606      H1610   1.045       .  S
C1615      C1616   1.413       .  A
C1615      C1620   1.400       .  A
C1616      C1617   1.406       .  A
C1616      N1621   1.437       .  S
C1617      C1618   1.410       .  A
C1617      H1622   1.083       .  S
C1618      C1619   1.419       .  A
C1618      C1623   1.501       .  S
C1619      C1620   1.402       .  A
C1619      N1624   1.439       .  S
C1620      H1625   1.084       .  S
N1621      H1641   1.043       .  S
N1621      H1642   1.045       .  S
C1623      C1626   1.405       .  A
C1623      C1630   1.421       .  A
N1624      H1639   1.045       .  S
N1624      H1640   1.043       .  S
C1626      C1627   1.402       .  A
C1626      H1631   1.082       .  S
C1627      C1628   1.412       .  A
C1627      N1632   1.439       .  S
C1628      C1629   1.402       .  A
C1629      C1630   1.410       .  A
C1629      H1633   1.083       .  S
C1630      N1634   1.438       .  S
N1632      H1635   1.046       .  S
N1632      H1636   1.046       .  S
N1634      H1637   1.046       .  S
N1634      H1638   1.044       .  S
C1643      C1644   1.411       .  A
C1643      C1648   1.404       .  A
C1644      C1645   1.411       .  A
C1644      N1649   1.438       .  S
C1645      C1646   1.407       .  A
C1645      H1650   1.084       .  S
C1646      C1647   1.417       .  A
C1646      C1651   1.496       .  S
C1647      C1648   1.401       .  A
C1647      N1652   1.433       .  S
C1648      H1653   1.083       .  S
N1649      H1669   1.045       .  S
N1649      H1670   1.046       .  S
C1651      C1654   1.404       .  A
C1651      C1658   1.416       .  A
N1652      H1667   1.043       .  S
N1652      H1668   1.045       .  S
C1654      C1655   1.408       .  A
C1654      H1659   1.083       .  S
C1655      C1656   1.414       .  A
C1655      N1660   1.438       .  S
C1656      C1657   1.401       .  A
C1657      C1658   1.410       .  A
C1657      H1661   1.083       .  S
C1658      N1662   1.438       .  S
N1660      H1663   1.045       .  S
N1660      H1664   1.046       .  S
N1662      H1665   1.046       .  S
N1662      H1666   1.043       .  S
C1671      C1672   1.413       .  A
C1671      C1676   1.407       .  A
C1672      C1673   1.407       .  A
C1672      N1677   1.438       .  S
C1673      C1674   1.404       .  A
C1673      H1678   1.083       .  S
C1674      C1675   1.406       .  A
C1674      C1679   1.480       .  S
C1675      C1676   1.404       .  A
C1675      N1680   1.437       .  S
C1676      H1681   1.084       .  S
N1677      H1697   1.045       .  S
N1677      H1698   1.045       .  S
C1679      C1682   1.403       .  A
C1679      C1686   1.406       .  A
N1680      H1695   1.046       .  S
N1680      H1696   1.046       .  S
C1682      C1683   1.407       .  A
C1682      H1687   1.084       .  S
C1683      C1684   1.411       .  A
C1683      N1688   1.438       .  S
C1684      C1685   1.407       .  A
C1685      C1686   1.404       .  A
C1685      H1689   1.084       .  S
C1686      N1690   1.437       .  S
N1688      H1691   1.046       .  S
N1688      H1692   1.045       .  S
N1690      H1693   1.046       .  S
N1690      H1694   1.045       .  S
C1699      C1700   1.406       .  A
C1699      C1704   1.403       .  A
C1700      C1701   1.402       .  A
C1700      N1705   1.437       .  S
C1701      C1702   1.404       .  A
C1701      H1706   1.084       .  S
C1702      C1703   1.415       .  A
C1702      C1707   1.479       .  S
C1703      C1704   1.404       .  A
C1703      N1708   1.438       .  S
C1704      H1709   1.084       .  S
N1705      H1725   1.045       .  S
N1705      H1726   1.045       .  S
C1707      C1710   1.401       .  A
C1707      C1714   1.406       .  A
N1708      H1723   1.046       .  S
N1708      H1724   1.043       .  S
C1710      C1711   1.401       .  A
C1710      H1715   1.081       .  S
C1711      C1712   1.410       .  A
C1711      N1716   1.431       .  S
C1712      C1713   1.409       .  A
C1713      C1714   1.405       .  A
C1713      H1717   1.084       .  S
C1714      N1718   1.438       .  S
N1716      H1719   1.046   1_655  S
N1716      H1720   1.044       .  S
N1718      H1721   1.046       .  S
N1718      H1722   1.046       .  S
C1727      C1728   1.416       .  A
C1727      C1732   1.404       .  A
C1728      C1729   1.406       .  A
C1728      N1733   1.438       .  S
C1729      C1730   1.408       .  A
C1729      H1734   1.084       .  S
C1730      C1731   1.408       .  A
C1730      C1735   1.492       .  S
C1731      C1732   1.400       .  A
C1731      N1736   1.432       .  S
C1732      H1737   1.084       .  S
N1733      H1753   1.042       .  S
N1733      H1754   1.044       .  S
C1735      C1738   1.405       .  A
C1735      C1742   1.413       .  A
N1736      H1751   1.045       .  S
N1736      H1752   1.045       .  S
C1738      C1739   1.407       .  A
C1738      H1743   1.083       .  S
C1739      C1740   1.409       .  A
C1739      N1744   1.437       .  S
C1740      C1741   1.400       .  A
C1741      C1742   1.403       .  A
C1741      H1745   1.084       .  S
C1742      N1746   1.432       .  S
N1744      H1747   1.046       .  S
N1744      H1748   1.045       .  S
N1746      H1749   1.046       .  S
N1746      H1750   1.045       .  S
C1755      C1756   1.407       .  A
C1755      C1760   1.407       .  A
C1756      C1757   1.403       .  A
C1756      N1761   1.431       .  S
C1757      C1758   1.403       .  A
C1757      H1762   1.082       .  S
C1758      C1759   1.410       .  A
C1758      C1763   1.484       .  S
C1759      C1760   1.407       .  A
C1759      N1764   1.438       .  S
C1760      H1765   1.084       .  S
N1761      H1781   1.044       .  S
N1761      H1782   1.046       .  S
C1763      C1766   1.400       .  A
C1763      C1770   1.421       .  A
N1764      H1779   1.046       .  S
N1764      H1780   1.044       .  S
C1766      C1767   1.401       .  A
C1766      H1771   1.084       .  S
C1767      C1768   1.417       .  A
C1767      N1772   1.438       .  S
C1768      C1769   1.402       .  A
C1769      C1770   1.404       .  A
C1769      H1773   1.084       .  S
C1770      N1774   1.439       .  S
N1772      H1775   1.045       .  S
N1772      H1776   1.044       .  S
N1774      H1777   1.045       .  S
N1774      H1778   1.042       .  S
C1783      C1784   1.411       .  A
C1783      C1788   1.407       .  A
C1784      C1785   1.408       .  A
C1784      N1789   1.437       .  S
C1785      C1786   1.406       .  A
C1785      H1790   1.082   1_556  S
C1786      C1787   1.408       .  A
C1786      C1791   1.486       .  S
C1787      C1788   1.403       .  A
C1787      N1792   1.438       .  S
C1788      H1793   1.084       .  S
N1789      H1809   1.046       .  S
N1789      H1810   1.046   1_556  S
C1791      C1794   1.401   1_556  A
C1791      C1798   1.412       .  A
N1792      H1807   1.046       .  S
N1792      H1808   1.046       .  S
C1794      C1795   1.399       .  A
C1794      H1799   1.083       .  S
C1795      C1796   1.416       .  A
C1795      N1800   1.437       .  S
C1796      C1797   1.402   1_554  A
C1797      C1798   1.407       .  A
C1797      H1801   1.084       .  S
C1798      N1802   1.437       .  S
N1800      H1803   1.043       .  S
N1800      H1804   1.044       .  S
N1802      H1805   1.046       .  S
N1802      H1806   1.046       .  S
C1811      C1812   1.417       .  A
C1811      C1816   1.404       .  A
C1812      C1813   1.407       .  A
C1812      N1817   1.438       .  S
C1813      C1814   1.408       .  A
C1813      H1818   1.084       .  S
C1814      C1815   1.409       .  A
C1814      C1819   1.493       .  S
C1815      C1816   1.399       .  A
C1815      N1820   1.433   1_556  S
C1816      H1821   1.083   1_556  S
N1817      H1837   1.043       .  S
N1817      H1838   1.045       .  S
C1819      C1822   1.406       .  A
C1819      C1826   1.413       .  A
N1820      H1835   1.046       .  S
N1820      H1836   1.045   1_554  S
C1822      C1823   1.407       .  A
C1822      H1827   1.084       .  S
C1823      C1824   1.410       .  A
C1823      N1828   1.432       .  S
C1824      C1825   1.407       .  A
C1825      C1826   1.406       .  A
C1825      H1829   1.084       .  S
C1826      N1830   1.438       .  S
N1828      H1831   1.046       .  S
N1828      H1832   1.046       .  S
N1830      H1833   1.045       .  S
N1830      H1834   1.046       .  S
C1839      C1840   1.412       .  A
C1839      C1844   1.404       .  A
C1840      C1841   1.404       .  A
C1840      N1845   1.438       .  S
C1841      C1842   1.405       .  A
C1841      H1846   1.083       .  S
C1842      C1843   1.415       .  A
C1842      C1847   1.500       .  S
C1843      C1844   1.410       .  A
C1843      N1848   1.432       .  S
C1844      H1849   1.084       .  S
N1845      H1865   1.046       .  S
N1845      H1866   1.045       .  S
C1847      C1850   1.410       .  A
C1847      C1854   1.416       .  A
N1848      H1863   1.045       .  S
N1848      H1864   1.045       .  S
C1850      C1851   1.413       .  A
C1850      H1855   1.083       .  S
C1851      C1852   1.409   1_455  A
C1851      N1856   1.437       .  S
C1852      C1853   1.402       .  A
C1853      C1854   1.402   1_655  A
C1853      H1857   1.083       .  S
C1854      N1858   1.439   1_455  S
N1856      H1859   1.046       .  S
N1856      H1860   1.045       .  S
N1858      H1861   1.046       .  S
N1858      H1862   1.044       .  S
