geometry optimzed in LAMMPS
_audit_creation_date              2020-12-01 
_audit_creation_method            'lammps2cif' 
_symmetry_space_group_name_H-M    'P1' 
_symmetry_Int_Tables_number       1 
_symmetry_cell_setting            triclinic 
loop_ 
_symmetry_equiv_pos_as_xyz 
  x,y,z 
_cell_length_a                    33.16311667 
_cell_length_b                    34.15326222907337 
_cell_length_c                    34.48992232174448 
_cell_angle_alpha                 81.5880900131623 
_cell_angle_beta                  96.27466568391415 
_cell_angle_gamma                 93.20545477615575 
loop_ 
_atom_site_label 
_atom_site_type_symbol 
_atom_site_fract_x 
_atom_site_fract_y 
_atom_site_fract_z 
_atom_site_charge 
N1          N  0.95954043  0.05040442  0.50016820    -0.36400
N2          N  0.95826949  0.96111457  0.50479660    -0.56900
N3          N  0.04476799  0.96489722  0.50465825    -0.36400
N4          N  0.04658267  0.05332945  0.50526590    -0.56900
C5          C  0.92020550  0.04075822  0.50579539     0.27200
C6          C  0.96683024  0.08921349  0.50504070     0.27200
C7          C  0.03854229  0.92472415  0.51029415     0.27200
C8          C  0.08518759  0.97301635  0.51097559     0.27200
C9          C  0.91791988  0.96708891  0.50063329     0.35800
C10         C  0.96278929  0.92221195  0.50229191     0.35800
C11         C  0.04157903  0.09304713  0.50079571     0.35800
C12         C  0.08634426  0.04820932  0.50277466     0.35800
C13         C  0.90205175  0.07414798  0.51346870    -0.21600
C14         C  0.93129643  0.10450511  0.51294981    -0.21600
C15         C  0.07571493  0.90727705  0.51971126    -0.21600
C16         C  0.10496934  0.93751995  0.52019566    -0.21600
C17         C  0.89671199  0.93152149  0.49602895    -0.22700
C18         C  0.92500636  0.90327319  0.49712261    -0.22700
C19         C  0.07852594  0.11317191  0.49621927    -0.22700
C20         C  0.10676204  0.08493081  0.49740434    -0.22700
C21         C  0.89938586  0.00334422  0.50278650    -0.18000
C22         C  0.00443686  0.11147767  0.50220019    -0.18000
C23         C  0.10533825  0.01122878  0.50673984    -0.18000
C24         C  0.00050471  0.90318624  0.50611476    -0.18000
H25         H  0.87082244  0.07650005  0.51895396     0.14900
H26         H  0.92689769  0.13440242  0.51812470     0.14900
H27         H  0.08133524  0.87595203  0.52552641     0.14900
H28         H  0.13731980  0.93365971  0.52637738     0.14900
H29         H  0.86411028  0.92629933  0.49253619     0.13200
H30         H  0.91846131  0.87228485  0.49463707     0.13100
H31         H  0.08457142  0.14489882  0.49249279     0.13200
H32         H  0.13882510  0.09085206  0.49477293     0.13100
H33         H  0.97883020  0.03220036  0.49014085     0.26400
H34         H  0.02359926  0.98582618  0.49341857     0.26400
O35         O  0.10376513  0.54512094  0.50466247    -0.80600
O36         O  0.92290615  0.52913811  0.52070513    -0.65300
O37         O  0.03423921  0.50437339  0.52802286    -1.11900
C38         C  0.99946461  0.48523228  0.39397425     1.06200
O39         O  0.90806291  0.47268310  0.49750711    -0.78500
O40         O  0.96077687  0.42556305  0.47305200    -0.66100
Ni41       Ni  0.07532604  0.53733521  0.55099637     1.34900
C42         C  0.99696381  0.41487241  0.48323447     0.85000
O43         O  0.98254206  0.52406335  0.58117430    -0.79100
O44         O  0.04952746  0.53026633  0.59892293    -0.89400
C45         C  0.89685255  0.50287573  0.51062138     0.84600
O46         O  0.05275263  0.58870965  0.53572215    -0.67600
O47         O  0.96372205  0.47733702  0.40440883    -0.86800
C48         C  0.01822532  0.60079134  0.52048769     0.85400
C49         C  0.01281376  0.52687664  0.60725014     1.07000
H50         H  0.97483459  0.53658844  0.45533475     0.38800
O51         O  0.97835055  0.51122434  0.47162455    -1.09500
O52         O  0.02683092  0.44029202  0.48525040    -0.66200
Ni53       Ni  0.03377450  0.49845051  0.47331634     1.26300
O54         O  0.98854074  0.57650926  0.51272994    -0.66400
O55         O  0.02997832  0.49430512  0.41767452    -0.78700
C56         C  0.11647044  0.51653951  0.49009038     0.84800
O57         O  0.09120136  0.49049066  0.47780789    -0.65800
Ni58       Ni  0.93764296  0.47556686  0.45194576     1.27400
Ni59       Ni  0.97939324  0.51881566  0.52583355     1.26100
H60         H  0.03637517  0.47841708  0.54338427     0.39300
O61         O  0.54066528  0.08894830  0.49622029    -0.80600
O62         O  0.52246380  0.91573462  0.49589198    -0.65300
O63         O  0.49746617  0.02367716  0.48002062    -1.11900
C64         C  0.48188524  0.99841028  0.61750078     1.06200
O65         O  0.46617855  0.90248438  0.52475502    -0.78500
O66         O  0.42009416  0.95629026  0.54558046    -0.66100
Ni67       Ni  0.53088565  0.06176346  0.45167453     1.34900
C68         C  0.40965472  0.99106725  0.53141300     0.85000
O69         O  0.51578828  0.97040043  0.43049256    -0.79100
O70         O  0.52225635  0.03500067  0.40621340    -0.89400
C71         C  0.49667610  0.89103769  0.51088567     0.84600
O72         O  0.58250556  0.03941590  0.46568137    -0.67600
O73         O  0.47337605  0.96285471  0.61091478    -0.86800
C74         C  0.59426468  0.00699326  0.48508627     0.85400
C75         C  0.51847999  0.99844534  0.40163225     1.07000
H76         H  0.53257827  0.96936778  0.55575586     0.38800
O77         O  0.50612345  0.97227408  0.54088843    -1.09500
O78         O  0.43548808  0.01980138  0.52637483    -0.66200
Ni79       Ni  0.49396689  0.02657930  0.53505814     1.26300
O80         O  0.56950552  0.97911822  0.49667568    -0.66400
O81         O  0.49092606  0.02659915  0.59069758    -0.78700
C82         C  0.51098348  0.10421395  0.50748403     0.84800
O83         O  0.48532487  0.08210328  0.52588061    -0.65800
Ni84       Ni  0.47061568  0.93410773  0.56677831     1.27400
Ni85       Ni  0.51142278  0.97021867  0.48628436     1.26100
H86         H  0.47062494  0.02545937  0.46617860     0.39300
N87         N  0.50199669  0.94150902  0.05622729    -0.36400
N88         N  0.51566800  0.02680719  0.05227415    -0.56900
N89         N  0.50743603  0.03425899  0.96664156    -0.36400
N90         N  0.49800279  0.94885196  0.97073058    -0.56900
C91         C  0.51395517  0.94434139  0.09453970     0.27200
C92         C  0.50454609  0.90314830  0.05137748     0.27200
C93         C  0.52058241  0.07147939  0.97185933     0.27200
C94         C  0.51183097  0.03016771  0.92893258     0.27200
C95         C  0.51167635  0.01758343  0.09120294     0.35800
C96         C  0.51397578  0.06665427  0.04373122     0.35800
C97         C  0.48618714  0.91027827  0.97877083     0.35800
C98         C  0.48949991  0.95918401  0.93144185     0.35800
C99         C  0.52387291  0.90727630  0.11437052    -0.21600
C100        C  0.51816232  0.88130673  0.08707633    -0.21600
C101        C  0.53325812  0.09138773  0.93699381    -0.21600
C102        C  0.52782047  0.06525603  0.90990332    -0.21600
C103        C  0.50819386  0.05180667  0.10760486    -0.22700
C104        C  0.50960497  0.08288850  0.07751968    -0.22700
C105        C  0.47036606  0.89601804  0.94436409    -0.22700
C106        C  0.47258968  0.92698550  0.91436709    -0.22700
C107        C  0.51339065  0.97891481  0.11256731    -0.18000
C108        C  0.49230961  0.88697173  0.01620861    -0.18000
C109        C  0.49885450  0.99669069  0.91046523    -0.18000
C110        C  0.51881203  0.08878208  0.00638644    -0.18000
H111        H  0.53383023  0.89964704  0.14537464     0.14900
H112        H  0.52281638  0.84979127  0.09300512     0.14900
H113        H  0.54477578  0.12175611  0.93149721     0.14900
H114        H  0.53422270  0.07160251  0.87945827     0.14900
H115        H  0.50529277  0.05417763  0.13812319     0.13200
H116        H  0.50805843  0.11391801  0.08029692     0.13100
H117        H  0.45877523  0.86628918  0.94111806     0.13200
H118        H  0.46305000  0.92586576  0.88350202     0.13100
H119        H  0.48817119  0.96338465  0.03581070     0.26400
H120        H  0.49163496  0.01468352  0.98607461     0.26400
N121        N  0.94926604  0.50571040  0.03900556    -0.36400
N122        N  0.94209852  0.50441455  0.95398467    -0.56900
N123        N  0.03016457  0.50860513  0.95643704    -0.36400
N124        N  0.03727755  0.50637954  0.04185760    -0.56900
C125        C  0.90918256  0.49614896  0.03207274     0.27200
C126        C  0.95954292  0.49742622  0.07837880     0.27200
C127        C  0.02020422  0.50294335  0.91846340     0.27200
C128        C  0.07040763  0.50282768  0.96507573     0.27200
C129        C  0.90240727  0.50712884  0.95844749     0.35800
C130        C  0.94505296  0.50929921  0.91475156     0.35800
C131        C  0.03423244  0.51149735  0.07955628     0.35800
C132        C  0.07696521  0.51228620  0.03609872     0.35800
C133        C  0.89373724  0.48210318  0.06750766    -0.21600
C134        C  0.92551580  0.48263013  0.09663178    -0.21600
C135        C  0.05477670  0.49422947  0.90258490    -0.21600
C136        C  0.08631806  0.49396261  0.93197404    -0.21600
C137        C  0.87994596  0.51296223  0.92187730    -0.22700
C138        C  0.90694384  0.51431601  0.89422426    -0.22700
C139        C  0.07223008  0.52069077  0.09782331    -0.22700
C140        C  0.09931439  0.52091248  0.07038612    -0.22700
C141        C  0.88565910  0.50164058  0.99495378    -0.18000
C142        C  0.99822035  0.50484021  0.09859316    -0.18000
C143        C  0.09376699  0.50747331  0.00120781    -0.18000
C144        C  0.98129706  0.50736117  0.89706727    -0.18000
H145        H  0.86273540  0.47253965  0.07203991     0.14900
H146        H  0.92363190  0.47355573  0.12781093     0.14900
H147        H  0.05726914  0.48884487  0.87281544     0.14900
H148        H  0.11757525  0.48839657  0.92904271     0.14900
H149        H  0.84740264  0.51537132  0.91571556     0.13200
H150        H  0.89928509  0.51807084  0.86261914     0.13100
H151        H  0.07982721  0.52597709  0.12798911     0.13200
H152        H  0.13180715  0.52639582  0.07526736     0.13100
H153        H  0.96730715  0.52125145  0.01870252     0.26400
H154        H  0.01158338  0.51988735  0.97401768     0.26400
O155        O  0.44777176  0.50228486  0.89528917    -0.80600
O156        O  0.46784477  0.51057627  0.07039784    -0.65300
O157        O  0.49076471  0.51947263  0.96452250    -1.11900
C158        C  0.51815589  0.38352952  0.00158568     1.06200
O159        O  0.52778556  0.48533606  0.08772722    -0.78500
O160        O  0.57443640  0.46237686  0.03789673    -0.66100
Ni161      Ni  0.45602662  0.54724538  0.92339180     1.34900
C162        C  0.58262118  0.47219432  0.00270376     0.85000
O163        O  0.46968282  0.57170600  0.01363083    -0.79100
O164        O  0.46231173  0.59421986  0.94873017    -0.89400
C165        C  0.49672426  0.50080510  0.09643300     0.84600
O166        O  0.40509205  0.53438714  0.94398734    -0.67600
O167        O  0.52828995  0.39387138  0.03555329    -0.86800
C168        C  0.39451956  0.51664842  0.97639994     0.85400
C169        C  0.46544726  0.59958897  0.98485453     1.07000
H170        H  0.46223602  0.44635203  0.02328123     0.38800
O171        O  0.48731787  0.46165550  0.01960484    -1.09500
O172        O  0.55572640  0.47285755  0.97341173    -0.66200
Ni173      Ni  0.49744775  0.46375051  0.96637286     1.26300
O174        O  0.42031478  0.50555853  0.00551791    -0.66400
O175        O  0.50440080  0.40747655  0.97153473    -0.78700
C176        C  0.47601410  0.48293094  0.88596190     0.84800
O177        O  0.50348534  0.46847272  0.91175321    -0.65800
Ni178      Ni  0.52679065  0.44045337  0.06005969     1.27400
Ni179      Ni  0.47782962  0.51636559  0.01697968     1.26100
H180        H  0.51703123  0.53301151  0.96337529     0.39300
O181        O  0.46885077  0.52712562  0.39798347    -0.80600
O182        O  0.49096440  0.51088579  0.57431502    -0.65300
O183        O  0.51587763  0.53033757  0.46865237    -1.11900
C184        C  0.52596917  0.39591815  0.47843930     1.06200
O185        O  0.52667078  0.45659123  0.59387612    -0.78500
O186        O  0.58050318  0.47065118  0.53849952    -0.66100
Ni187      Ni  0.48593750  0.56640688  0.43112177     1.34900
C188        C  0.59415119  0.47984800  0.50517436     0.85000
O189        O  0.50554647  0.57678768  0.52564158    -0.79100
O190        O  0.50189935  0.60706212  0.46264427    -0.89400
C191        C  0.50584896  0.48446437  0.60085321     0.84600
O192        O  0.43393700  0.55933283  0.45033812    -0.67600
O193        O  0.54925895  0.40424163  0.50810614    -0.86800
C194        C  0.42065179  0.53847558  0.47998292     0.85400
C195        C  0.50784128  0.60741413  0.49976440     1.07000
H196        H  0.47297018  0.45520978  0.51543677     0.38800
O197        O  0.50020325  0.46668508  0.51431333    -1.09500
O198        O  0.57180365  0.47568100  0.47312053    -0.66200
Ni199      Ni  0.51242345  0.47669261  0.46096299     1.26300
O200        O  0.44432991  0.52148063  0.50813902    -0.66400
O201        O  0.50679996  0.42232179  0.45538273    -0.78700
C202        C  0.49367862  0.50769759  0.38391437     0.84800
O203        O  0.52089284  0.48889716  0.40675274    -0.65800
Ni204      Ni  0.53685907  0.43348474  0.54865936     1.27400
Ni205      Ni  0.50242674  0.52147345  0.52108723     1.26100
H206        H  0.54382452  0.54014687  0.46914140     0.39300
C207        C  0.49813249  0.48472430  0.64186622    -0.11700
C208        C  0.50073211  0.51974811  0.65933037     0.03800
C209        C  0.49517344  0.51753554  0.69917357    -0.12300
C210        C  0.48702452  0.48092246  0.72169016     0.18600
C211        C  0.48369560  0.44618204  0.70417838    -0.09300
C212        C  0.48935647  0.44825990  0.66454196    -0.02300
H213        H  0.49811510  0.54427258  0.71290786     0.05100
C214        C  0.48407494  0.47919500  0.76393299     0.20600
H215        H  0.48712862  0.42117194  0.65140038     0.10300
C216        C  0.44579115  0.47841328  0.77751823    -0.15600
C217        C  0.44216491  0.47774517  0.81754476     0.03300
C218        C  0.47750997  0.47826853  0.84442456    -0.11000
C219        C  0.51573131  0.47740729  0.83066922    -0.01000
C220        C  0.51918367  0.47789752  0.79071053    -0.06100
H221        H  0.41870604  0.47839088  0.75686595     0.06300
H222        H  0.54314747  0.47766583  0.85084083     0.09700
Br223      Br  0.47291823  0.39523973  0.73365859    -0.05800
Br224      Br  0.51494138  0.57063751  0.63139857    -0.02800
Br225      Br  0.38823536  0.47436924  0.83348633     0.00100
Br226      Br  0.57233731  0.47706650  0.77381827    -0.04300
C227        C  0.48955522  0.50591967  0.34128841    -0.11700
C228        C  0.46795696  0.53436459  0.31386020     0.03800
C229        C  0.46688050  0.53258129  0.27374770    -0.12300
C230        C  0.48598258  0.50257665  0.26019572     0.18600
C231        C  0.50608501  0.47333440  0.28726441    -0.09300
C232        C  0.50798986  0.47535345  0.32747075    -0.02300
H233        H  0.45183792  0.55537299  0.25284924     0.05100
C234        C  0.48774676  0.50449338  0.21772368     0.20600
H235        H  0.52394316  0.45286995  0.34795966     0.10300
C236        C  0.52575317  0.51057088  0.20327068    -0.15600
C237        C  0.52937092  0.51151401  0.16337851     0.03300
C238        C  0.49421401  0.50656232  0.13727530    -0.11000
C239        C  0.45590663  0.50315995  0.15144654    -0.01000
C240        C  0.45242939  0.50197244  0.19146738    -0.06100
H241        H  0.55281465  0.51418959  0.22329833     0.06300
H242        H  0.42867405  0.49949055  0.13166404     0.09700
Br243      Br  0.53096209  0.42989531  0.27083265    -0.05800
Br244      Br  0.44068905  0.57784583  0.32774074    -0.02800
Br245      Br  0.58303237  0.52049934  0.14675669     0.00100
Br246      Br  0.39912310  0.49449112  0.20883073    -0.04300
C247        C  0.84066428  0.50003932  0.99417926    -0.11700
C248        C  0.81890618  0.53491007  0.99007017     0.03800
C249        C  0.77649780  0.53257255  0.98875609    -0.12300
C250        C  0.75528401  0.49569297  0.99226707     0.18600
C251        C  0.77716682  0.46080701  0.99660697    -0.09300
C252        C  0.81948060  0.46321606  0.99710037    -0.02300
H253        H  0.76002549  0.55956242  0.98555963     0.05100
C254        C  0.71056788  0.49388608  0.99276921     0.20600
H255        H  0.83604680  0.43627181  0.00044134     0.10300
C256        C  0.68569588  0.47921497  0.96208318    -0.15600
C257        C  0.64368307  0.47334688  0.96364094     0.03300
C258        C  0.62576448  0.48260675  0.99640873    -0.11000
C259        C  0.65071699  0.49894823  0.02618852    -0.01000
C260        C  0.69262001  0.50453984  0.02463790    -0.06100
H261        H  0.69930015  0.47096660  0.93742913     0.06300
H262        H  0.63772562  0.50639095  0.05153739     0.09700
Br263      Br  0.75085010  0.40918271  0.00424559    -0.05800
Br264      Br  0.84607874  0.58616756  0.98682226    -0.02800
Br265      Br  0.61366813  0.44918816  0.92190301     0.00100
Br266      Br  0.72435326  0.52397858  0.06830843    -0.04300
C267        C  0.13869372  0.50670693  0.00249375    -0.11700
C268        C  0.15898743  0.47085496  0.01151161     0.03800
C269        C  0.20103036  0.47079306  0.00998574    -0.12300
C270        C  0.22334366  0.50623167  0.99968731     0.18600
C271        C  0.20306616  0.54221444  0.99169308    -0.09300
C272        C  0.16105736  0.54219914  0.99303486    -0.02300
H273        H  0.21619372  0.44294276  0.01584360     0.05100
C274        C  0.26693674  0.50511564  0.99407905     0.20600
H275        H  0.14565723  0.56989782  0.98623638     0.10300
C276        C  0.27864348  0.51519677  0.95601732    -0.15600
C277        C  0.31952556  0.51788290  0.94911380     0.03300
C278        C  0.35022687  0.51005499  0.98106027    -0.11000
C279        C  0.33797817  0.49791034  0.01904825    -0.01000
C280        C  0.29687318  0.49536580  0.02567600    -0.06100
H281        H  0.25561987  0.52188331  0.93144048     0.06300
H282        H  0.36046147  0.49148706  0.04410686     0.09700
Br283      Br  0.23154135  0.59215293  0.97895379    -0.05800
Br284      Br  0.13005593  0.42130814  0.02452028    -0.02800
Br285      Br  0.32973408  0.53282048  0.89501300     0.00100
Br286      Br  0.28328022  0.48046638  0.07862511    -0.04300
C287        C  0.46539806  0.64028512  0.99432293    -0.11700
C288        C  0.43728074  0.66784433  0.97470665     0.03800
C289        C  0.44037224  0.70695460  0.98281717    -0.12300
C290        C  0.47089719  0.71888014  0.01064788     0.18600
C291        C  0.49712410  0.69068844  0.03218757    -0.09300
C292        C  0.49428841  0.65175860  0.02388211    -0.02300
H293        H  0.41953439  0.72835541  0.96672367     0.05100
C294        C  0.47739158  0.76136871  0.01414699     0.20600
H295        H  0.51547552  0.63062273  0.03986826     0.10300
C296        C  0.45062763  0.78033227  0.03341270    -0.15600
C297        C  0.45562452  0.82103690  0.03543613     0.03300
C298        C  0.48780731  0.84316897  0.01796434    -0.11000
C299        C  0.51485824  0.82388593  0.99933201    -0.01000
C300        C  0.50961683  0.78345873  0.99695400    -0.06100
H301        H  0.42557934  0.76353687  0.04643344     0.06300
H302        H  0.53943696  0.84070202  0.98551129     0.09700
Br303      Br  0.53775531  0.70433245  0.07257080    -0.05800
Br304      Br  0.39306947  0.65303321  0.93825562    -0.02800
Br305      Br  0.41690314  0.84542453  0.06074555     0.00100
Br306      Br  0.54578938  0.76007011  0.96789820    -0.04300
C307        C  0.52216896  0.13263916  0.00300018    -0.11700
C308        C  0.55940001  0.15271336  0.01234181     0.03800
C309        C  0.56120647  0.19408050  0.00964739    -0.12300
C310        C  0.52621708  0.21572167  0.99736879     0.18600
C311        C  0.48921659  0.19567659  0.98727944    -0.09300
C312        C  0.48740689  0.15438722  0.99005780    -0.02300
H313        H  0.58972944  0.20935198  0.01769040     0.05100
C314        C  0.52756084  0.25877905  0.99841143     0.20600
H315        H  0.45871114  0.13910695  0.98264555     0.10300
C316        C  0.53013578  0.28542663  0.96361432    -0.15600
C317        C  0.52748438  0.32633659  0.96347321     0.03300
C318        C  0.52180445  0.34091873  0.99874537    -0.11000
C319        C  0.52007481  0.31378123  0.03354481    -0.01000
C320        C  0.52294122  0.27327122  0.03359436    -0.06100
H321        H  0.53375654  0.27427415  0.93641848     0.06300
H322        H  0.51567028  0.32394029  0.06104465     0.09700
Br323      Br  0.44022919  0.22368384  0.97118087    -0.05800
Br324      Br  0.60818509  0.12456320  0.02872452    -0.02800
Br325      Br  0.53337910  0.36030366  0.91472923     0.00100
Br326      Br  0.51861448  0.23865603  0.08224357    -0.04300
C327        C  0.51674516  0.64589195  0.51297675    -0.11700
C328        C  0.54434013  0.67339649  0.49448428     0.03800
C329        C  0.54550782  0.71262337  0.50113828    -0.12300
C330        C  0.51981185  0.72472171  0.52635097     0.18600
C331        C  0.49492764  0.69644890  0.54758258    -0.09300
C332        C  0.49374628  0.65711329  0.54091909    -0.02300
H333        H  0.56470656  0.73420263  0.48469687     0.05100
C334        C  0.51434092  0.76727314  0.52448673     0.20600
H335        H  0.47277633  0.63592465  0.55551578     0.10300
C336        C  0.47631796  0.78192740  0.50918912    -0.15600
C337        C  0.47005217  0.82235650  0.50376723     0.03300
C338        C  0.50246489  0.84875183  0.51318737    -0.11000
C339        C  0.54075642  0.83427241  0.52766734    -0.01000
C340        C  0.54692813  0.79372737  0.53343527    -0.06100
H341        H  0.45156269  0.76179100  0.50075998     0.06300
H342        H  0.56565432  0.85449207  0.53547747     0.09700
Br343      Br  0.46004910  0.71058493  0.58378483    -0.05800
Br344      Br  0.58012005  0.65929663  0.45899354    -0.02800
Br345      Br  0.41746008  0.83993762  0.48132649     0.00100
Br346      Br  0.59988936  0.77603343  0.55436618    -0.04300
C347        C  0.52159097  0.35454145  0.47162091    -0.11700
C348        C  0.48333705  0.33699063  0.46015625     0.03800
C349        C  0.47891786  0.29589487  0.46262179    -0.12300
C350        C  0.51190949  0.27227738  0.47666250     0.18600
C351        C  0.55037128  0.28968190  0.48616205    -0.09300
C352        C  0.55500554  0.33062145  0.48341723    -0.02300
H353        H  0.44934658  0.28219599  0.45522832     0.05100
C354        C  0.50581177  0.22934998  0.48271063     0.20600
H355        H  0.58444721  0.34371036  0.49239184     0.10300
C356        C  0.51678994  0.20821420  0.45413927    -0.15600
C357        C  0.51697886  0.16715908  0.46111886     0.03300
C358        C  0.50622869  0.14686340  0.49752929    -0.11000
C359        C  0.49270311  0.16806172  0.52512602    -0.01000
C360        C  0.49265437  0.20932290  0.51797236    -0.06100
H361        H  0.52634789  0.22384386  0.42677770     0.06300
H362        H  0.48397398  0.15270509  0.55291658     0.09700
Br363      Br  0.59665207  0.25860727  0.50583667    -0.05800
Br364      Br  0.43500613  0.36646712  0.44558163    -0.02800
Br365      Br  0.53146656  0.14107552  0.41917468     0.00100
Br366      Br  0.47691929  0.23732114  0.55788261    -0.04300
C367        C  0.48076644  0.00586563  0.65885213    -0.11700
C368        C  0.50673716  0.03403469  0.67656705     0.03800
C369        C  0.50781316  0.03521004  0.71719470    -0.12300
C370        C  0.48350947  0.00877457  0.74069076     0.18600
C371        C  0.45646002  0.98196181  0.72292603    -0.09300
C372        C  0.45509234  0.98086595  0.68250858    -0.02300
H373        H  0.52876442  0.05590496  0.73081803     0.05100
C374        C  0.48862855  0.00744898  0.78398606     0.20600
H375        H  0.43460632  0.95925612  0.66974030     0.10300
C376        C  0.45880244  0.02273799  0.80278962    -0.15600
C377        C  0.46185596  0.01962646  0.84392511     0.03300
C378        C  0.49519072  0.00113698  0.86675147    -0.11000
C379        C  0.52511719  0.98607662  0.84795401    -0.01000
C380        C  0.52199755  0.98903188  0.80686821    -0.06100
H381        H  0.43280238  0.03652070  0.78543086     0.06300
H382        H  0.55069986  0.97159827  0.86536950     0.09700
Br383      Br  0.42300575  0.94412272  0.75315292    -0.05800
Br384      Br  0.54394723  0.06933153  0.64825125    -0.02800
Br385      Br  0.41922954  0.03959443  0.86795742     0.00100
Br386      Br  0.56298863  0.96593255  0.78329646    -0.04300
C387        C  0.51690817  0.98929163  0.36028883    -0.11700
C388        C  0.52498523  0.95167603  0.35063709     0.03800
C389        C  0.52451716  0.94618390  0.31092592    -0.12300
C390        C  0.51596527  0.97739574  0.28034700     0.18600
C391        C  0.50746586  0.01450408  0.28972331    -0.09300
C392        C  0.50804454  0.02020017  0.32908132    -0.02300
H393        H  0.53115189  0.91749894  0.30385015     0.05100
C394        C  0.51622657  0.97169693  0.23857087     0.20600
H395        H  0.50148854  0.04929004  0.33514216     0.10300
C396        C  0.47912038  0.96814827  0.21527649    -0.15600
C397        C  0.47793707  0.96934940  0.17441249     0.03300
C398        C  0.51422564  0.97433764  0.15622145    -0.11000
C399        C  0.55144586  0.97642380  0.17960706    -0.01000
C400        C  0.55265208  0.97494736  0.22055870    -0.06100
H401        H  0.45092769  0.96593094  0.22877800     0.06300
H402        H  0.57951130  0.98004678  0.16584434     0.09700
Br403      Br  0.49575357  0.05866208  0.24941176    -0.05800
Br404      Br  0.53847126  0.90686984  0.38958069    -0.02800
Br405      Br  0.42609243  0.96600234  0.14415954     0.00100
Br406      Br  0.60446090  0.97953599  0.25055418    -0.04300
C407        C  0.63793682  0.49332746  0.50504623    -0.11700
C408        C  0.65843166  0.50159738  0.47053308     0.03800
C409        C  0.70076800  0.50826083  0.47379848    -0.12300
C410        C  0.72325585  0.50774616  0.51071199     0.18600
C411        C  0.70281375  0.50311082  0.54466835    -0.09300
C412        C  0.66079431  0.49590481  0.54172477    -0.02300
H413        H  0.71644162  0.51253259  0.44743626     0.05100
C414        C  0.76804673  0.50739459  0.51368172     0.20600
H415        H  0.64627150  0.49107941  0.56874983     0.10300
C416        C  0.79119496  0.54281734  0.50628933    -0.15600
C417        C  0.83359356  0.54246410  0.50707398     0.03300
C418        C  0.85323284  0.50598772  0.51487929    -0.11000
C419        C  0.82984247  0.47082063  0.52335456    -0.01000
C420        C  0.78776223  0.47130854  0.52296689    -0.06100
H421        H  0.77616190  0.57070344  0.49923977     0.06300
H422        H  0.84429552  0.44259025  0.52961367     0.09700
Br423      Br  0.73154037  0.50471613  0.59588048    -0.05800
Br424      Br  0.63161543  0.50398560  0.41805353    -0.02800
Br425      Br  0.86231363  0.59230718  0.49427990     0.00100
Br426      Br  0.75821908  0.42164199  0.53377568    -0.04300
C427        C  0.16102665  0.51434022  0.48860796    -0.11700
C428        C  0.17824308  0.49614553  0.46033273     0.03800
C429        C  0.22067832  0.49657009  0.46031143    -0.12300
C430        C  0.24655664  0.51434150  0.48839615     0.18600
C431        C  0.22947040  0.53195548  0.51680175    -0.09300
C432        C  0.18731631  0.53185520  0.51671979    -0.02300
H433        H  0.23356651  0.48360657  0.43783513     0.05100
C434        C  0.29094484  0.51817816  0.48536024     0.20600
H435        H  0.17504114  0.54586728  0.53884726     0.10300
C436        C  0.30538388  0.54617989  0.45574504    -0.15600
C437        C  0.34705292  0.55397928  0.45360816     0.03300
C438        C  0.37572187  0.53280151  0.48144677    -0.11000
C439        C  0.36080612  0.50428708  0.51087269    -0.01000
C440        C  0.31903723  0.49701069  0.51305238    -0.06100
H441        H  0.28391331  0.56301392  0.43471023     0.06300
H442        H  0.38166869  0.48734669  0.53243791     0.09700
Br443      Br  0.26252746  0.55844258  0.55511131    -0.05800
Br444      Br  0.14584910  0.47271944  0.41946510    -0.02800
Br445      Br  0.36126754  0.59535399  0.41266361     0.00100
Br446      Br  0.30184692  0.45796223  0.55447353    -0.04300
C447        C  0.97869580  0.51015129  0.85339676    -0.11700
C448        C  0.97821399  0.54725233  0.82942753     0.03800
C449        C  0.98009154  0.54948849  0.78881247    -0.12300
C450        C  0.98217237  0.51504669  0.77148401     0.18600
C451        C  0.98154539  0.47784232  0.79533107    -0.09300
C452        C  0.97943140  0.47560547  0.83594134    -0.02300
H453        H  0.98083312  0.57823981  0.77077419     0.05100
C454        C  0.98885922  0.51881434  0.72931188     0.20600
H455        H  0.97999446  0.44697076  0.85422589     0.10300
C456        C  0.02711986  0.53215093  0.71822166    -0.15600
C457        C  0.03561921  0.53556404  0.67899865     0.03300
C458        C  0.00508832  0.52541943  0.64941967    -0.11000
C459        C  0.96633761  0.51275604  0.66085512    -0.01000
C460        C  0.95814874  0.50943321  0.70029304    -0.06100
H461        H  0.05075918  0.53976732  0.74046629     0.06300
H462        H  0.94225694  0.50493211  0.63916564     0.09700
Br463      Br  0.98664959  0.42964701  0.77418490    -0.05800
Br464      Br  0.97627850  0.59555764  0.85129084    -0.02800
Br465      Br  0.08960811  0.55522830  0.66918702     0.00100
Br466      Br  0.90455819  0.49239808  0.71329861    -0.04300
C467        C  0.00477396  0.48519496  0.35163134    -0.11700
C468        C  0.98168155  0.45897940  0.32877497     0.03800
C469        C  0.98352939  0.46316754  0.28799636    -0.12300
C470        C  0.00833632  0.49285427  0.26905227     0.18600
C471        C  0.03278351  0.51787113  0.29182187    -0.09300
C472        C  0.03094329  0.51389166  0.33271928    -0.02300
H473        H  0.96526738  0.44322218  0.27084060     0.05100
C474        C  0.00781991  0.49709152  0.22552041     0.20600
H475        H  0.04913217  0.53412136  0.34957383     0.10300
C476        C  0.98658540  0.52784900  0.20180605    -0.15600
C477        C  0.98355096  0.53110936  0.16056198     0.03300
C478        C  0.00152700  0.50298967  0.14240379    -0.11000
C479        C  0.02293132  0.47242039  0.16620995    -0.01000
C480        C  0.02637660  0.46948903  0.20734842    -0.06100
H481        H  0.97211671  0.54921911  0.21545548     0.06300
H482        H  0.03706401  0.45075563  0.15265373     0.09700
Br483      Br  0.06931250  0.55755509  0.26824691    -0.05800
Br484      Br  0.94820180  0.41572396  0.35140346    -0.02800
Br485      Br  0.95521523  0.57472764  0.13015533     0.00100
Br486      Br  0.05740285  0.42775621  0.23762608    -0.04300
C487        C  0.36517138  0.99761806  0.52148195    -0.11700
C488        C  0.34833977  0.03568460  0.51299897     0.03800
C489        C  0.30600552  0.03912140  0.50812588    -0.12300
C490        C  0.27973172  0.00549466  0.51125159     0.18600
C491        C  0.29608512  0.96779786  0.51801171    -0.09300
C492        C  0.33816162  0.96409998  0.52292728    -0.02300
H493        H  0.29345774  0.06826945  0.50276658     0.05100
C494        C  0.23541159  0.00994313  0.50973334     0.20600
H495        H  0.34965491  0.93452776  0.52879088     0.10300
C496        C  0.21107502  0.01106619  0.47368079    -0.15600
C497        C  0.16875658  0.01249169  0.47215103     0.03300
C498        C  0.15031064  0.01239864  0.50706774    -0.11000
C499        C  0.17471949  0.01228607  0.54292899    -0.01000
C500        C  0.21698519  0.01112124  0.54443637    -0.06100
H501        H  0.22499185  0.01031054  0.44682453     0.06300
H502        H  0.16075168  0.01246540  0.56986129     0.09700
Br503      Br  0.26191416  0.92043799  0.52230692    -0.05800
Br504      Br  0.38026459  0.08454501  0.50893689    -0.02800
Br505      Br  0.13704082  0.01447449  0.42200396     0.00100
Br506      Br  0.24843667  0.01016793  0.59461522    -0.04300
C507        C  0.63890767  0.00281210  0.49420533    -0.11700
C508        C  0.65805043  0.96609070  0.49913288     0.03800
C509        C  0.70063454  0.96531698  0.50343981    -0.12300
C510        C  0.72466964  0.00048356  0.50305351     0.18600
C511        C  0.70578432  0.03675270  0.49973996    -0.09300
C512        C  0.66350546  0.03769496  0.49542409    -0.02300
H513        H  0.71509350  0.93725731  0.50594615     0.05100
C514        C  0.76926398  0.99944638  0.50352676     0.20600
H515        H  0.64980431  0.06619023  0.49238700     0.10300
C516        C  0.78675140  0.00974512  0.46800677    -0.15600
C517        C  0.82891095  0.01098488  0.46733310     0.03300
C518        C  0.85434118  0.00189992  0.50262560    -0.11000
C519        C  0.83683221  0.99135374  0.53818692    -0.01000
C520        C  0.79455679  0.99007590  0.53881303    -0.06100
H521        H  0.76747290  0.01714187  0.44074008     0.06300
H522        H  0.85614950  0.98437457  0.56548444     0.09700
Br523      Br  0.73664356  0.08592707  0.50044393    -0.05800
Br524      Br  0.62854092  0.91631199  0.49734983    -0.02800
Br525      Br  0.85046851  0.02516327  0.41759876     0.00100
Br526      Br  0.77246726  0.97650237  0.58836729    -0.04300
C527        C  0.01268770  0.64520839  0.51326501    -0.11700
C528        C  0.04402969  0.67267267  0.50069150     0.03800
C529        C  0.03994467  0.71392510  0.49885926    -0.12300
C530        C  0.00512175  0.72951752  0.50972450     0.18600
C531        C  0.97325650  0.70234929  0.52105909    -0.09300
C532        C  0.97711017  0.66099992  0.52262264    -0.02300
H533        H  0.06454676  0.73402050  0.48939097     0.05100
C534        C  0.00289003  0.77389196  0.50919416     0.20600
H535        H  0.95255751  0.64103277  0.53243113     0.10300
C536        C  0.99878038  0.79946610  0.47313010    -0.15600
C537        C  0.99737222  0.84100828  0.47173681     0.03300
C538        C  0.00041703  0.85845068  0.50676262    -0.11000
C539        C  0.00474436  0.83291656  0.54283932    -0.01000
C540        C  0.00613052  0.79136828  0.54424851    -0.06100
H541        H  0.99659707  0.78704302  0.44579322     0.06300
H542        H  0.00762071  0.84543734  0.57014826     0.09700
Br543      Br  0.92362336  0.72054268  0.53449388    -0.05800
Br544      Br  0.09291810  0.65578374  0.48422179    -0.02800
Br545      Br  0.99162463  0.87307223  0.42114647     0.00100
Br546      Br  0.01438454  0.75963214  0.59490626    -0.04300
C547        C  0.00341946  0.37054461  0.49197755    -0.11700
C548        C  0.03749070  0.35242125  0.48163611     0.03800
C549        C  0.03879577  0.31058774  0.48512761    -0.12300
C550        C  0.00695751  0.28534719  0.49944787     0.18600
C551        C  0.97396789  0.30330569  0.51149450    -0.09300
C552        C  0.97218946  0.34497918  0.50727258    -0.02300
H553        H  0.06459865  0.29766654  0.47583785     0.05100
C554        C  0.00751410  0.24081910  0.49997783     0.20600
H555        H  0.94566514  0.35751513  0.51560855     0.10300
C556        C  0.01385764  0.21513719  0.53585634    -0.15600
C557        C  0.01309190  0.17347681  0.53699611     0.03300
C558        C  0.00529376  0.15611542  0.50199626    -0.11000
C559        C  0.99923329  0.18172785  0.46616123    -0.01000
C560        C  0.00051844  0.22336041  0.46493429    -0.06100
H561        H  0.01945336  0.22755211  0.56318799     0.06300
H562        H  0.99355130  0.16925068  0.43886761     0.09700
Br563      Br  0.92948253  0.27201178  0.53251226    -0.05800
Br564      Br  0.08198099  0.38295750  0.45979563    -0.02800
Br565      Br  0.02300145  0.14103524  0.58705411     0.00100
Br566      Br  0.99155454  0.25532878  0.41449973    -0.04300
loop_ 
_geom_bond_atom_site_label_1 
_geom_bond_atom_site_label_2 
_geom_bond_distance 
_geom_bond_site_symmetry_2 
_ccdc_geom_bond_type 
N1            C6   1.365       .  A
N1            C5   1.355       .  A
N1           H33   1.035       .  S
N2            C9   1.354       .  A
N2           C10   1.362       .  A
N3            C8   1.354       .  A
N3            C7   1.365       .  A
N3           H34   1.034       .  S
N4           C11   1.360       .  A
N4           C12   1.353       .  A
C5           C13   1.390       .  A
C5           C21   1.430       .  A
C6           C22   1.429   1_655  A
C6           C14   1.384       .  A
C7           C15   1.385       .  A
C7           C24   1.429       .  A
C8           C23   1.428   1_565  A
C8           C16   1.390       .  A
C9           C21   1.428   1_565  A
C9           C17   1.390       .  A
C10          C24   1.426   1_655  A
C10          C18   1.384       .  A
C11          C19   1.384       .  A
C11          C22   1.423       .  A
C12          C20   1.389       .  A
C12          C23   1.425       .  A
C13          C14   1.379       .  A
C13          H25   1.082       .  S
C14          H26   1.082       .  S
C15          C16   1.378       .  A
C15          H27   1.082       .  S
C16          H28   1.082       .  S
C17          C18   1.377       .  A
C17          H29   1.082       .  S
C18          H30   1.082       .  S
C19          C20   1.375       .  A
C19          H31   1.082       .  S
C20          H32   1.082       .  S
C21         C518   1.491       .  S
C22         C558   1.522       .  S
C23         C498   1.489       .  S
C24         C538   1.525       .  S
O35         Ni41   1.921       .  S
O35          C56   1.272       .  A
O36         Ni59   1.910       .  S
O36          C45   1.269       .  A
O37         Ni41   1.899       .  S
O37         Ni59   1.902   1_455  S
O37         Ni53   1.925       .  S
O37          H60   0.966       .  S
C38         C467   1.490   1_655  S
C38          O55   1.283   1_655  A
C38          O47   1.279       .  A
O39         Ni58   1.929       .  S
O39          C45   1.274       .  A
O40         Ni58   1.922       .  S
O40          C42   1.271       .  A
Ni41         O44   1.921       .  S
Ni41         O46   1.925       .  S
C42         C547   1.522   1_655  S
C42          O52   1.283   1_655  A
O43         Ni59   1.934       .  S
O43          C49   1.282   1_655  A
O44          C49   1.276       .  A
C45         C418   1.481       .  S
O46          C48   1.271       .  A
O47         Ni58   1.927       .  S
C48         C527   1.519       .  S
C48          O54   1.282   1_455  A
C49         C458   1.497       .  S
H50          O51   0.967       .  S
O51         Ni59   1.921       .  S
O51         Ni53   1.905   1_655  S
O51         Ni58   1.904       .  S
O52         Ni53   1.974       .  S
Ni53         O57   1.925       .  S
Ni53         O55   1.935       .  S
O54         Ni59   1.970       .  S
C56         C427   1.491       .  S
C56          O57   1.274       .  A
O61         Ni67   1.898       .  S
O61          C82   1.262       .  A
O62         Ni85   1.891       .  S
O62          C71   1.264       .  A
O63         Ni67   1.892       .  S
O63         Ni85   1.885   1_545  S
O63         Ni79   1.932       .  S
O63          H86   0.964       .  S
C64         C367   1.490   1_565  S
C64          O81   1.280   1_565  A
C64          O73   1.278       .  A
O65         Ni84   1.919       .  S
O65          C71   1.269       .  A
O66         Ni84   1.905       .  S
O66          C68   1.268       .  A
Ni67         O70   1.915       .  S
Ni67         O72   1.898       .  S
C68         C487   1.499       .  S
C68          O78   1.271   1_565  A
O69         Ni85   1.944       .  S
O69          C75   1.283       .  A
O70          C75   1.279   1_545  A
C71         C338   1.457       .  S
O72          C74   1.265       .  A
O73         Ni84   1.920       .  S
C74         C507   1.490       .  S
C74          O80   1.270   1_545  A
C75         C387   1.499       .  S
H76          O77   0.969       .  S
O77         Ni85   1.922       .  S
O77         Ni79   1.897   1_565  S
O77         Ni84   1.898       .  S
O78         Ni79   1.936       .  S
Ni79         O83   1.909       .  S
Ni79         O81   1.933       .  S
O80         Ni85   1.936       .  S
C82         C358   1.460       .  S
C82          O83   1.266       .  A
N87          C92   1.353       .  A
N87          C91   1.353       .  A
N87         H119   1.038       .  S
N88          C95   1.353       .  A
N88          C96   1.353       .  A
N89          C94   1.352       .  A
N89          C93   1.351       .  A
N89         H120   1.038       .  S
N90          C97   1.351       .  A
N90          C98   1.352       .  A
C91          C99   1.387       .  A
C91         C107   1.415       .  A
C92         C108   1.416       .  A
C92         C100   1.387       .  A
C93         C101   1.387       .  A
C93         C110   1.413   1_556  A
C94         C109   1.413   1_545  A
C94         C102   1.387       .  A
C95         C107   1.416   1_545  A
C95         C103   1.386       .  A
C96         C110   1.415       .  A
C96         C104   1.386       .  A
C97         C105   1.387       .  A
C97         C108   1.415   1_556  A
C98         C106   1.385       .  A
C98         C109   1.412       .  A
C99         C100   1.377       .  A
C99         H111   1.082       .  S
C100        H112   1.082       .  S
C101        C102   1.375       .  A
C101        H113   1.082       .  S
C102        H114   1.082       .  S
C103        C104   1.374       .  A
C103        H115   1.082       .  S
C104        H116   1.082       .  S
C105        C106   1.372       .  A
C105        H117   1.082       .  S
C106        H118   1.082       .  S
C107        C398   1.488       .  S
C108        C298   1.488       .  S
C109        C378   1.485   1_565  S
C110        C307   1.484       .  S
N121        C126   1.356       .  A
N121        C125   1.355       .  A
N121        H153   1.038       .  S
N122        C129   1.352       .  A
N122        C130   1.353       .  A
N123        C128   1.354       .  A
N123        C127   1.354       .  A
N123        H154   1.036       .  S
N124        C131   1.352       .  A
N124        C132   1.352       .  A
C125        C133   1.387       .  A
C125        C141   1.418   1_554  A
C126        C142   1.420       .  A
C126        C134   1.387       .  A
C127        C135   1.388       .  A
C127        C144   1.419   1_455  A
C128        C143   1.418   1_556  A
C128        C136   1.387       .  A
C129        C141   1.415       .  A
C129        C137   1.387       .  A
C130        C144   1.415       .  A
C130        C138   1.386       .  A
C131        C139   1.387       .  A
C131        C142   1.416   1_455  A
C132        C140   1.386       .  A
C132        C143   1.414       .  A
C133        C134   1.375       .  A
C133        H145   1.082       .  S
C134        H146   1.082       .  S
C135        C136   1.374       .  A
C135        H147   1.082       .  S
C136        H148   1.082       .  S
C137        C138   1.372       .  A
C137        H149   1.082       .  S
C138        H150   1.082       .  S
C139        C140   1.373       .  A
C139        H151   1.082       .  S
C140        H152   1.082       .  S
C141        C247   1.488       .  S
C142        C478   1.495   1_655  S
C143        C267   1.487       .  S
C144        C447   1.489       .  S
O155       Ni161   1.924       .  S
O155        C176   1.271       .  A
O156       Ni179   1.887       .  S
O156        C165   1.263       .  A
O157       Ni161   1.900       .  S
O157       Ni179   1.891   1_556  S
O157       Ni173   1.919       .  S
O157        H180   0.965       .  S
C158        C318   1.485   1_554  S
C158        O175   1.281   1_554  A
C158        O167   1.277       .  A
O159       Ni178   1.918       .  S
O159        C165   1.267       .  A
O160       Ni178   1.899       .  S
O160        C162   1.266       .  A
Ni161       O164   1.927       .  S
Ni161       O166   1.908       .  S
C162        C258   1.486   1_554  S
C162        O172   1.271   1_554  A
O163       Ni179   1.909       .  S
O163        C169   1.273   1_554  A
O164        C169   1.278       .  A
C165        C238   1.462       .  S
O166        C168   1.266       .  A
O167       Ni178   1.913       .  S
C168        C278   1.496       .  S
C168        O174   1.273   1_556  A
C169        C287   1.474       .  S
H170        O171   0.968       .  S
O171       Ni179   1.900       .  S
O171       Ni173   1.893   1_554  S
O171       Ni178   1.896       .  S
O172       Ni173   1.935       .  S
Ni173       O177   1.899       .  S
Ni173       O175   1.929       .  S
O174       Ni179   1.931       .  S
C176        C218   1.471       .  S
C176        O177   1.269       .  A
O181       Ni187   1.910       .  S
O181        C202   1.263       .  A
O182       Ni205   1.894       .  S
O182        C191   1.267       .  A
O183       Ni187   1.889       .  S
O183       Ni205   1.887       .  S
O183       Ni199   1.885       .  S
O183        H206   0.967       .  S
C184        C347   1.463       .  S
C184        O201   1.262       .  A
C184        O193   1.270       .  A
O185       Ni204   1.917       .  S
O185        C191   1.272       .  A
O186       Ni204   1.898       .  S
O186        C188   1.272       .  A
Ni187       O190   1.904       .  S
Ni187       O192   1.905       .  S
C188        C407   1.499       .  S
C188        O198   1.283       .  A
O189       Ni205   1.915       .  S
O189        C195   1.276       .  A
O190        C195   1.276       .  A
C191        C207   1.466       .  S
O192        C194   1.264       .  A
O193       Ni204   1.924       .  S
C194        C438   1.497       .  S
C194        O200   1.271       .  A
C195        C327   1.457       .  S
H196        O197   0.967       .  S
O197       Ni205   1.916       .  S
O197       Ni199   1.905       .  S
O197       Ni204   1.901       .  S
O198       Ni199   1.969       .  S
Ni199       O203   1.903       .  S
Ni199       O201   1.892       .  S
O200       Ni205   1.930       .  S
C202        C227   1.471       .  S
C202        O203   1.268       .  A
C207        C208   1.410       .  A
C207        C212   1.404       .  A
C208        C209   1.397       .  A
C208       Br224   1.921       .  S
C209        C210   1.401       .  A
C209        H213   1.084       .  S
C210        C211   1.402       .  A
C210        C214   1.463       .  S
C211        C212   1.391       .  A
C211       Br223   1.919       .  S
C212        H215   1.084       .  S
C214        C216   1.398       .  A
C214        C220   1.403       .  A
C216        C217   1.396       .  A
C216        H221   1.084       .  S
C217        C218   1.414       .  A
C217       Br225   1.920       .  S
C218        C219   1.404       .  A
C219        C220   1.393       .  A
C219        H222   1.083       .  S
C220       Br226   1.919       .  S
C227        C228   1.419       .  A
C227        C232   1.404       .  A
C228        C229   1.390       .  A
C228       Br244   1.925       .  S
C229        C230   1.395       .  A
C229        H233   1.084       .  S
C230        C231   1.407       .  A
C230        C234   1.464       .  S
C231        C232   1.393       .  A
C231       Br243   1.920       .  S
C232        H235   1.083       .  S
C234        C236   1.399       .  A
C234        C240   1.407       .  A
C236        C237   1.390       .  A
C236        H241   1.084       .  S
C237        C238   1.411       .  A
C237       Br245   1.924       .  S
C238        C239   1.403       .  A
C239        C240   1.392       .  A
C239        H242   1.084       .  S
C240       Br246   1.920       .  S
C247        C248   1.408       .  A
C247        C252   1.402       .  A
C248        C249   1.400       .  A
C248       Br264   1.918       .  S
C249        C250   1.404       .  A
C249        H253   1.083       .  S
C250        C251   1.410       .  A
C250        C254   1.483       .  S
C251        C252   1.399       .  A
C251       Br263   1.919   1_556  S
C252        H255   1.083   1_556  S
C254        C256   1.403       .  A
C254        C260   1.407   1_556  A
C256        C257   1.402       .  A
C256        H261   1.084       .  S
C257        C258   1.415       .  A
C257       Br265   1.920       .  S
C258        C259   1.408   1_556  A
C259        C260   1.398       .  A
C259        H262   1.084       .  S
C260       Br266   1.920       .  S
C267        C268   1.409       .  A
C267        C272   1.401   1_554  A
C268        C269   1.401       .  A
C268       Br284   1.917       .  S
C269        C270   1.404   1_554  A
C269        H273   1.083       .  S
C270        C271   1.411       .  A
C270        C274   1.483       .  S
C271        C272   1.399       .  A
C271       Br283   1.920       .  S
C272        H275   1.083       .  S
C274        C276   1.399       .  A
C274        C280   1.407   1_556  A
C276        C277   1.398       .  A
C276        H281   1.084       .  S
C277        C278   1.422       .  A
C277       Br285   1.923       .  S
C278        C279   1.411   1_556  A
C279        C280   1.403       .  A
C279        H282   1.083       .  S
C280       Br286   1.918       .  S
C287        C288   1.410       .  A
C287        C292   1.404   1_556  A
C288        C289   1.400       .  A
C288       Br304   1.920       .  S
C289        C290   1.403   1_556  A
C289        H293   1.083       .  S
C290        C291   1.407       .  A
C290        C294   1.476       .  S
C291        C292   1.397       .  A
C291       Br303   1.919       .  S
C292        H295   1.084       .  S
C294        C296   1.403       .  A
C294        C300   1.407   1_554  A
C296        C297   1.402       .  A
C296        H301   1.083       .  S
C297        C298   1.411       .  A
C297       Br305   1.919       .  S
C298        C299   1.403   1_554  A
C299        C300   1.395       .  A
C299        H302   1.083       .  S
C300       Br306   1.920       .  S
C307        C308   1.408       .  A
C307        C312   1.402   1_554  A
C308        C309   1.401       .  A
C308       Br324   1.917       .  S
C309        C310   1.403   1_554  A
C309        H313   1.083       .  S
C310        C311   1.406       .  A
C310        C314   1.474       .  S
C311        C312   1.398       .  A
C311       Br323   1.919       .  S
C312        H315   1.083       .  S
C314        C316   1.404       .  A
C314        C320   1.402   1_556  A
C316        C317   1.404       .  A
C316        H321   1.083       .  S
C317        C318   1.415       .  A
C317       Br325   1.920       .  S
C318        C319   1.409   1_556  A
C319        C320   1.392       .  A
C319        H322   1.083       .  S
C320       Br326   1.920       .  S
C327        C328   1.408       .  A
C327        C332   1.400       .  A
C328        C329   1.390       .  A
C328       Br344   1.921       .  S
C329        C330   1.400       .  A
C329        H333   1.084       .  S
C330        C331   1.409       .  A
C330        C334   1.466       .  S
C331        C332   1.393       .  A
C331       Br343   1.920       .  S
C332        H335   1.084       .  S
C334        C336   1.402       .  A
C334        C340   1.407       .  A
C336        C337   1.390       .  A
C336        H341   1.084       .  S
C337        C338   1.405       .  A
C337       Br345   1.920       .  S
C338        C339   1.402       .  A
C339        C340   1.393       .  A
C339        H342   1.083       .  S
C340       Br346   1.920       .  S
C347        C348   1.414       .  A
C347        C352   1.402       .  A
C348        C349   1.394       .  A
C348       Br364   1.921       .  S
C349        C350   1.397       .  A
C349        H353   1.084       .  S
C350        C351   1.403       .  A
C350        C354   1.456       .  S
C351        C352   1.389       .  A
C351       Br363   1.920       .  S
C352        H355   1.084       .  S
C354        C356   1.393       .  A
C354        C360   1.406       .  A
C356        C357   1.388       .  A
C356        H361   1.084       .  S
C357        C358   1.414       .  A
C357       Br365   1.922       .  S
C358        C359   1.401       .  A
C359        C360   1.395       .  A
C359        H362   1.084       .  S
C360       Br366   1.918       .  S
C367        C368   1.416       .  A
C367        C372   1.409   1_545  A
C368        C369   1.404       .  A
C368       Br384   1.919       .  S
C369        C370   1.403       .  A
C369        H373   1.084       .  S
C370        C371   1.404   1_545  A
C370        C374   1.479       .  S
C371        C372   1.396       .  A
C371       Br383   1.920       .  S
C372        H375   1.083       .  S
C374        C376   1.403       .  A
C374        C380   1.409   1_545  A
C376        C377   1.400       .  A
C376        H381   1.083       .  S
C377        C378   1.408       .  A
C377       Br385   1.918       .  S
C378        C379   1.402   1_545  A
C379        C380   1.399       .  A
C379        H382   1.083       .  S
C380       Br386   1.918       .  S
C387        C388   1.420       .  A
C387        C392   1.412   1_565  A
C388        C389   1.408       .  A
C388       Br404   1.921       .  S
C389        C390   1.403       .  A
C389        H393   1.083       .  S
C390        C391   1.404   1_565  A
C390        C394   1.483       .  S
C391        C392   1.397       .  A
C391       Br403   1.922       .  S
C392        H395   1.083       .  S
C394        C396   1.404       .  A
C394        C400   1.409       .  A
C396        C397   1.400       .  A
C396        H401   1.083       .  S
C397        C398   1.408       .  A
C397       Br405   1.918       .  S
C398        C399   1.403       .  A
C399        C400   1.402       .  A
C399        H402   1.083       .  S
C400       Br406   1.917       .  S
C407        C408   1.420       .  A
C407        C412   1.414       .  A
C408        C409   1.405       .  A
C408       Br424   1.920       .  S
C409        C410   1.402       .  A
C409        H413   1.084       .  S
C410        C411   1.401       .  A
C410        C414   1.478       .  S
C411        C412   1.397       .  A
C411       Br423   1.920       .  S
C412        H415   1.083       .  S
C414        C416   1.402       .  A
C414        C420   1.406       .  A
C416        C417   1.404       .  A
C416        H421   1.083       .  S
C417        C418   1.415       .  A
C417       Br425   1.921       .  S
C418        C419   1.404       .  A
C419        C420   1.395       .  A
C419        H422   1.084       .  S
C420       Br426   1.920       .  S
C427        C428   1.415       .  A
C427        C432   1.409       .  A
C428        C429   1.407       .  A
C428       Br444   1.919       .  S
C429        C430   1.405       .  A
C429        H433   1.083       .  S
C430        C431   1.405       .  A
C430        C434   1.484       .  S
C431        C432   1.397       .  A
C431       Br443   1.920       .  S
C432        H435   1.083       .  S
C434        C436   1.399       .  A
C434        C440   1.408       .  A
C436        C437   1.400       .  A
C436        H441   1.084       .  S
C437        C438   1.422       .  A
C437       Br445   1.924       .  S
C438        C439   1.411       .  A
C439        C440   1.402       .  A
C439        H442   1.083       .  S
C440       Br446   1.918       .  S
C447        C448   1.408       .  A
C447        C452   1.403       .  A
C448        C449   1.400       .  A
C448       Br464   1.919       .  S
C449        C450   1.403       .  A
C449        H453   1.083       .  S
C450        C451   1.409       .  A
C450        C454   1.481       .  S
C451        C452   1.401       .  A
C451       Br463   1.918       .  S
C452        H455   1.083       .  S
C454        C456   1.398   1_655  A
C454        C460   1.406       .  A
C456        C457   1.399       .  A
C456        H461   1.084       .  S
C457        C458   1.423       .  A
C457       Br465   1.924       .  S
C458        C459   1.412   1_455  A
C459        C460   1.403       .  A
C459        H462   1.083       .  S
C460       Br466   1.918       .  S
C467        C468   1.417   1_455  A
C467        C472   1.407       .  A
C468        C469   1.400       .  A
C468       Br484   1.922       .  S
C469        C470   1.401   1_655  A
C469        H473   1.084       .  S
C470        C471   1.408       .  A
C470        C474   1.485       .  S
C471        C472   1.405       .  A
C471       Br483   1.917       .  S
C472        H475   1.083       .  S
C474        C476   1.405   1_455  A
C474        C480   1.408       .  A
C476        C477   1.403       .  A
C476        H481   1.083       .  S
C477        C478   1.411   1_655  A
C477       Br485   1.920       .  S
C478        C479   1.405       .  A
C479        C480   1.400       .  A
C479        H482   1.083       .  S
C480       Br486   1.917       .  S
C487        C488   1.422   1_565  A
C487        C492   1.412       .  A
C488        C489   1.405       .  A
C488       Br504   1.921       .  S
C489        C490   1.401       .  A
C489        H493   1.084       .  S
C490        C491   1.403   1_545  A
C490        C494   1.481       .  S
C491        C492   1.398       .  A
C491       Br503   1.919       .  S
C492        H495   1.083       .  S
C494        C496   1.403       .  A
C494        C500   1.409       .  A
C496        C497   1.402       .  A
C496        H501   1.083       .  S
C497        C498   1.409       .  A
C497       Br505   1.918       .  S
C498        C499   1.402       .  A
C499        C500   1.400       .  A
C499        H502   1.083       .  S
C500       Br506   1.918       .  S
C507        C508   1.417   1_545  A
C507        C512   1.409       .  A
C508        C509   1.405       .  A
C508       Br524   1.919       .  S
C509        C510   1.403   1_565  A
C509        H513   1.083       .  S
C510        C511   1.403       .  A
C510        C514   1.480   1_545  S
C511        C512   1.395       .  A
C511       Br523   1.919       .  S
C512        H515   1.083       .  S
C514        C516   1.403   1_565  A
C514        C520   1.407       .  A
C516        C517   1.399       .  A
C516        H521   1.084       .  S
C517        C518   1.408       .  A
C517       Br525   1.917       .  S
C518        C519   1.405   1_545  A
C519        C520   1.403       .  A
C519        H522   1.083       .  S
C520       Br526   1.917       .  S
C527        C528   1.421       .  A
C527        C532   1.412   1_455  A
C528        C529   1.414       .  A
C528       Br544   1.920       .  S
C529        C530   1.407       .  A
C529        H533   1.083       .  S
C530        C531   1.416   1_455  A
C530        C534   1.519       .  S
C531        C532   1.418       .  A
C531       Br543   1.917       .  S
C532        H535   1.083       .  S
C534        C536   1.410   1_455  A
C534        C540   1.416       .  A
C536        C537   1.416       .  A
C536        H541   1.083       .  S
C537        C538   1.415   1_655  A
C537       Br545   1.916       .  S
C538        C539   1.410       .  A
C539        C540   1.416       .  A
C539        H542   1.083       .  S
C540       Br546   1.918       .  S
C547        C548   1.421       .  A
C547        C552   1.413   1_455  A
C548        C549   1.419       .  A
C548       Br564   1.917       .  S
C549        C550   1.411       .  A
C549        H553   1.083       .  S
C550        C551   1.412   1_455  A
C550        C554   1.519       .  S
C551        C552   1.413       .  A
C551       Br563   1.917       .  S
C552        H555   1.083       .  S
C554        C556   1.411       .  A
C554        C560   1.416       .  A
C556        C557   1.416       .  A
C556        H561   1.083       .  S
C557        C558   1.414       .  A
C557       Br565   1.917       .  S
C558        C559   1.408   1_455  A
C559        C560   1.415   1_655  A
C559        H562   1.083       .  S
C560       Br566   1.917   1_455  S
