geometry optimzed in LAMMPS
_audit_creation_date              2020-12-01 
_audit_creation_method            'lammps2cif' 
_symmetry_space_group_name_H-M    'P1' 
_symmetry_Int_Tables_number       1 
_symmetry_cell_setting            triclinic 
loop_ 
_symmetry_equiv_pos_as_xyz 
  x,y,z 
_cell_length_a                    56.94614648 
_cell_length_b                    56.89238653855079 
_cell_length_c                    21.565271608500773 
_cell_angle_alpha                 89.6189981285217 
_cell_angle_beta                  89.88686122350325 
_cell_angle_gamma                 90.16665577928815 
loop_ 
_atom_site_label 
_atom_site_type_symbol 
_atom_site_fract_x 
_atom_site_fract_y 
_atom_site_fract_z 
_atom_site_charge 
O1          O  0.39515566  0.68413079  0.34183519    -0.71200
O2          O  0.39591085  0.61853329  0.04425105    -0.71500
O3          O  0.42868454  0.65202082  0.36510532    -0.71300
O4          O  0.36241601  0.65040847  0.35907898    -0.71300
O5          O  0.36365495  0.64363313  0.26004403    -0.71300
O6          O  0.43072513  0.64307649  0.26743549    -0.71300
O7          O  0.39636670  0.61094461  0.28213217    -0.71200
O8          O  0.39776624  0.67567394  0.24393034    -0.71400
V9          V  0.39559877  0.65116183  0.35978980     1.35200
V10         V  0.39712995  0.64348291  0.26530917     1.35200
C11         C  0.39636792  0.69094700  0.28585510     0.78000
C12         C  0.39575554  0.60361626  0.33744859     0.78100
C13         C  0.44103780  0.64753907  0.31800921     0.77900
C14         C  0.35171581  0.64674945  0.30888547     0.77900
O15         O  0.39585190  0.85640668  0.11889604    -0.71200
O16         O  0.39748117  0.92176116  0.07686879    -0.71500
O17         O  0.42973202  0.88831169  0.09584920    -0.71300
O18         O  0.36350387  0.88995608  0.09847125    -0.71300
O19         O  0.36385485  0.89817371  0.19674657    -0.71300
O20         O  0.43099745  0.89735147  0.19357113    -0.71300
O21         O  0.39771341  0.93010241  0.17506358    -0.71200
O22         O  0.39698796  0.86545729  0.21660389    -0.71400
V23         V  0.39665949  0.88922886  0.09948590     1.35200
V24         V  0.39738879  0.89758756  0.19362099     1.35200
C25         C  0.39616520  0.84991774  0.17519176     0.78000
C26         C  0.39771084  0.93702143  0.11930987     0.78100
C27         C  0.44167670  0.89286274  0.14345681     0.77900
C28         C  0.35235123  0.89443327  0.14756993     0.77900
O29         O  0.14410366  0.68679576  0.27608685    -0.71200
O30         O  0.14359977  0.62159007  0.23240355    -0.71500
O31         O  0.11073131  0.65472693  0.25105497    -0.71300
O32         O  0.17701454  0.65376942  0.25577052    -0.71300
O33         O  0.17671012  0.64501422  0.02100362    -0.71300
O34         O  0.10959975  0.64467926  0.01585769    -0.71300
O35         O  0.14358401  0.61269807  0.99876126    -0.71200
O36         O  0.14281412  0.67694344  0.03997908    -0.71400
V37         V  0.14382187  0.65407707  0.25570735     1.35200
V38         V  0.14319635  0.64501956  0.01696535     1.35200
C39         C  0.14347550  0.69274385  0.99876868     0.78000
C40         C  0.14388577  0.60609424  0.27487660     0.78100
C41         C  0.09852593  0.64953434  0.29811893     0.77900
C42         C  0.18787792  0.64935195  0.30539954     0.77900
O43         O  0.14473575  0.85738452  0.17063241    -0.71200
O44         O  0.14328157  0.92303089  0.20842277    -0.71500
O45         O  0.11095281  0.88935179  0.19094744    -0.71300
O46         O  0.17720223  0.89128239  0.18989143    -0.71300
O47         O  0.17713863  0.89852985  0.09079904    -0.71300
O48         O  0.10995991  0.89848353  0.09295626    -0.71300
O49         O  0.14381099  0.93091876  0.10965840    -0.71200
O50         O  0.14349950  0.86622173  0.07250766    -0.71400
V51         V  0.14402927  0.89037179  0.18804555     1.35200
V52         V  0.14360014  0.89836251  0.09339742     1.35200
C53         C  0.14422410  0.85076275  0.11462846     0.78000
C54         C  0.14356673  0.93807769  0.16485768     0.78100
C55         C  0.09913101  0.89389030  0.14299291     0.77900
C56         C  0.18849291  0.89531891  0.14057249     0.77900
O57         O  0.35623609  0.39671044  0.03109554    -0.71200
O58         O  0.42158388  0.39674375  0.99219901    -0.71500
O59         O  0.38886280  0.36344092  0.01124521    -0.71300
O60         O  0.38896084  0.42977732  0.01091456    -0.71300
O61         O  0.39734531  0.43015859  0.10921607    -0.71300
O62         O  0.39675656  0.36302786  0.10983851    -0.71300
O63         O  0.42952139  0.39626000  0.09077247    -0.71200
O64         O  0.36466865  0.39675518  0.12936649    -0.71400
V65         V  0.38904590  0.39665924  0.01332582     1.35200
V66         V  0.39692802  0.39656025  0.10790241     1.35200
C67         C  0.34941706  0.39687579  0.08702906     0.78000
C68         C  0.43662378  0.39634928  0.03530068     0.78100
C69         C  0.39283953  0.35190773  0.06022605     0.77900
C70         C  0.39315305  0.44128281  0.05943214     0.77900
O71         O  0.18322347  0.39825081  0.25190420    -0.71200
O72         O  0.11729366  0.39906648  0.28442315    -0.71500
O73         O  0.14968547  0.36545560  0.26900330    -0.71300
O74         O  0.15071939  0.43188806  0.26836124    -0.71300
O75         O  0.14241092  0.43255382  0.17002241    -0.71300
O76         O  0.14450935  0.36551259  0.16914852    -0.71300
O77         O  0.11080526  0.39783029  0.18520355    -0.71200
O78         O  0.17603357  0.40006748  0.15303008    -0.71400
V79         V  0.15012867  0.39869338  0.26651197     1.35200
V80         V  0.14355938  0.39899036  0.17127391     1.35200
C81         C  0.19074544  0.39913757  0.19660775     0.78000
C82         C  0.10288377  0.39827216  0.23990143     0.78100
C83         C  0.14720706  0.35416104  0.21928337     0.77900
C84         C  0.14638142  0.44355445  0.21975456     0.77900
O85         O  0.35764201  0.14348795  0.06919677    -0.71200
O86         O  0.42325217  0.14433293  0.10657520    -0.71500
O87         O  0.39037311  0.17707426  0.08622305    -0.71300
O88         O  0.39068488  0.11081194  0.09127801    -0.71300
O89         O  0.39985564  0.10943814  0.99348516    -0.71300
O90         O  0.39746534  0.17688696  0.32367912    -0.71300
O91         O  0.43090898  0.14477044  0.00780223    -0.71200
O92         O  0.36581760  0.14237078  0.30790136    -0.71400
V93         V  0.39059953  0.14389994  0.08635891     1.35200
V94         V  0.39801157  0.14334073  0.32867325     1.35200
C95         C  0.35085140  0.14220962  0.01339153     0.78000
C96         C  0.43819321  0.14491016  0.06304032     0.78100
C97         C  0.39356811  0.18820732  0.03619106     0.77900
C98         C  0.39565699  0.09880192  0.04415440     0.77900
O99         O  0.18500029  0.14563077  0.18685946    -0.71200
O100        O  0.11951440  0.14719140  0.14736983    -0.71500
O101        O  0.15288613  0.17953622  0.16936098    -0.71300
O102        O  0.15170738  0.11331404  0.16322512    -0.71300
O103        O  0.14280872  0.11138145  0.26117643    -0.71300
O104        O  0.14487226  0.17846456  0.26793320    -0.71300
O105        O  0.11148566  0.14623771  0.24590605    -0.71200
O106        O  0.17606675  0.14376086  0.28479359    -0.71400
V107        V  0.15213402  0.14637983  0.16862648     1.35200
V108        V  0.14396701  0.14497421  0.26303093     1.35200
C109        C  0.19155423  0.14445326  0.24292633     0.78000
C110        C  0.10439437  0.14712564  0.19053337     0.78100
C111        C  0.14914506  0.19032038  0.21928607     0.77900
C112        C  0.14694899  0.10102798  0.21052720     0.77900
O113        O  0.64504032  0.35644966  0.33054391    -0.71200
O114        O  0.64337967  0.42175995  0.37186075    -0.71500
O115        O  0.61118730  0.38773008  0.35708416    -0.71300
O116        O  0.67731244  0.39057394  0.34660814    -0.71300
O117        O  0.67515908  0.39777563  0.24765006    -0.71300
O118        O  0.60829299  0.39807123  0.26019291    -0.71300
O119        O  0.64244362  0.43024802  0.27350750    -0.71200
O120        O  0.64106090  0.36572786  0.23321983    -0.71400
V121        V  0.64417936  0.38925080  0.34963023     1.35200
V122        V  0.64177491  0.39779552  0.25555417     1.35200
C123        C  0.64317838  0.35008191  0.27454496     0.78000
C124        C  0.64289355  0.43709876  0.32907743     0.78100
C125        C  0.59845777  0.39284275  0.31113632     0.77900
C126        C  0.68752657  0.39440712  0.29559206     0.77900
O127        O  0.64506728  0.18496829  0.10789707    -0.71200
O128        O  0.64564751  0.11956535  0.06830755    -0.71500
O129        O  0.61228592  0.15210060  0.08388983    -0.71300
O130        O  0.67851283  0.15215530  0.09073789    -0.71300
O131        O  0.67732025  0.14444536  0.18957206    -0.71300
O132        O  0.61028179  0.14278069  0.18168535    -0.71300
O133        O  0.64499219  0.11126661  0.16685009    -0.71200
O134        O  0.64284189  0.17585745  0.20576596    -0.71400
V135        V  0.64533972  0.15209205  0.08965822     1.35200
V136        V  0.64385580  0.14375886  0.18406246     1.35200
C137        C  0.64385687  0.19143479  0.16393686     0.78000
C138        C  0.64570152  0.10435627  0.11142210     0.78100
C139        C  0.59998779  0.14714351  0.13088660     0.77900
C140        C  0.68922616  0.14821350  0.14082701     0.77900
O141        O  0.89532620  0.35764452  0.27037985    -0.71200
O142        O  0.89548703  0.42321785  0.23067177    -0.71500
O143        O  0.92858163  0.39037947  0.24805986    -0.71300
O144        O  0.86218301  0.39054615  0.25199253    -0.71300
O145        O  0.86303102  0.39752855  0.01873425    -0.71300
O146        O  0.92990679  0.39834633  0.01329825    -0.71300
O147        O  0.89581402  0.43047389  0.99851410    -0.71200
O148        O  0.89692428  0.36539982  0.03432269    -0.71400
V149        V  0.89543004  0.39056506  0.25218114     1.35200
V150        V  0.89641872  0.39777050  0.01430871     1.35200
C151        C  0.89571473  0.35036284  0.99167923     0.78000
C152        C  0.89515357  0.43821730  0.27376242     0.78100
C153        C  0.94048028  0.39511403  0.29569383     0.77900
C154        C  0.85121265  0.39418814  0.30187668     0.77900
O155        O  0.89721529  0.18459176  0.15189284    -0.71200
O156        O  0.89689532  0.11943499  0.19442208    -0.71500
O157        O  0.93021288  0.15211796  0.17554477    -0.71300
O158        O  0.86392352  0.15190411  0.17208507    -0.71300
O159        O  0.86445986  0.14281968  0.07432906    -0.71300
O160        O  0.93157415  0.14380744  0.07736566    -0.71300
O161        O  0.89812729  0.11100053  0.09629932    -0.71200
O162        O  0.89764034  0.17548766  0.05414297    -0.71400
V163        V  0.89710742  0.15187439  0.17153854     1.35200
V164        V  0.89796042  0.14343023  0.07743190     1.35200
C165        C  0.89722295  0.19101453  0.09557760     0.78000
C166        C  0.89731900  0.10417438  0.15206533     0.78100
C167        C  0.94221619  0.14804411  0.12761622     0.77900
C168        C  0.85287499  0.14724734  0.12305836     0.77900
O169        O  0.68417826  0.64501475  0.02672757    -0.71200
O170        O  0.61889012  0.64369494  0.98779719    -0.71500
O171        O  0.65087233  0.67759896  0.00670753    -0.71300
O172        O  0.65215979  0.61123377  0.00693398    -0.71300
O173        O  0.64357755  0.61032481  0.10519920    -0.71300
O174        O  0.64277433  0.67739006  0.10527247    -0.71300
O175        O  0.61084815  0.64361031  0.08640376    -0.71200
O176        O  0.67554776  0.64442795  0.12497983    -0.71400
V177        V  0.65139769  0.64436636  0.00898403     1.35200
V178        V  0.64335770  0.64392216  0.10355713     1.35200
C179        C  0.69086919  0.64497909  0.08268559     0.78000
C180        C  0.60381287  0.64364293  0.03096335     0.78100
C181        C  0.64649262  0.68880941  0.05566150     0.77900
C182        C  0.64794676  0.59945746  0.05548118     0.77900
O183        O  0.85518710  0.64733652  0.25556378    -0.71200
O184        O  0.92056374  0.64558857  0.29436465    -0.71500
O185        O  0.88895840  0.67957022  0.27387811    -0.71300
O186        O  0.88674941  0.61326677  0.27714245    -0.71300
O187        O  0.89590066  0.61207917  0.17932044    -0.71300
O188        O  0.89639191  0.67912490  0.17494960    -0.71300
O189        O  0.92853766  0.64585654  0.19573622    -0.71200
O190        O  0.86379096  0.64560801  0.15744068    -0.71400
V191        V  0.88799493  0.64639825  0.27331583     1.35200
V192        V  0.89598767  0.64565782  0.17877012     1.35200
C193        C  0.84847719  0.64665717  0.19963523     0.78000
C194        C  0.93563585  0.64589457  0.25112664     0.78100
C195        C  0.89308201  0.69063945  0.22419940     0.77900
C196        C  0.89112028  0.60133747  0.22936864     0.77900
O197        O  0.68385231  0.89448749  0.08929389    -0.71200
O198        O  0.61821553  0.89783350  0.12349484    -0.71500
O199        O  0.64883986  0.86312183  0.10451710    -0.71300
O200        O  0.65309743  0.92925899  0.10957636    -0.71300
O201        O  0.64467809  0.93157787  0.01146704    -0.71300
O202        O  0.64333666  0.86464274  0.33762710    -0.71300
O203        O  0.61132469  0.89826168  0.02438762    -0.71200
O204        O  0.67616210  0.89813949  0.32305279    -0.71400
V205        V  0.65090946  0.89623381  0.10476419     1.35200
V206        V  0.64379568  0.89815011  0.34268640     1.35200
C207        C  0.69124013  0.89570148  0.03392969     0.78000
C208        C  0.60362798  0.89811167  0.07933777     0.78100
C209        C  0.64538436  0.85252814  0.05416860     0.77900
C210        C  0.64926153  0.94173397  0.06209782     0.77900
O211        O  0.85699344  0.89675246  0.20416952    -0.71200
O212        O  0.92245890  0.89827602  0.16733724    -0.71500
O213        O  0.89088324  0.86443404  0.18964135    -0.71300
O214        O  0.88876593  0.93055343  0.18099492    -0.71300
O215        O  0.89723369  0.93287705  0.27905048    -0.71300
O216        O  0.89744887  0.86591942  0.28885177    -0.71300
O217        O  0.92995084  0.89908236  0.26609796    -0.71200
O218        O  0.86484646  0.89943309  0.30249353    -0.71400
V219        V  0.88986497  0.89755084  0.18753692     1.35200
V220        V  0.89723240  0.89933580  0.28226225     1.35200
C221        C  0.84985402  0.89788690  0.25969933     0.78000
C222        C  0.93732081  0.89850519  0.21079652     0.78100
C223        C  0.89458667  0.85390851  0.24026836     0.77900
C224        C  0.89291930  0.94298448  0.22788777     0.77900
C225        C  0.74682863  0.89633906  0.29798050     0.30300
C226        C  0.76315919  0.89757644  0.24925145    -0.36000
C227        C  0.78686259  0.89707539  0.26650615     0.16300
C228        C  0.79399759  0.89552803  0.32753240     0.22100
C229        C  0.77793783  0.89328957  0.04420243    -0.34100
C230        C  0.75420902  0.89382972  0.02710564     0.16200
O231        O  0.72380888  0.89698967  0.29252753    -0.26200
C232        C  0.71634233  0.89496803  0.01891061     0.06000
C233        C  0.73429523  0.89340594  0.06228017    -0.31000
O234        O  0.81703198  0.89569528  0.33315218    -0.22900
C235        C  0.82474265  0.89726131  0.27497577    -0.02900
C236        C  0.80677956  0.89815887  0.23151038    -0.17300
H237        H  0.75778891  0.89905239  0.20133671     0.20700
H238        H  0.78335655  0.89216358  0.09214098     0.19100
H239        H  0.73281117  0.89235172  0.11222095     0.19000
H240        H  0.80826441  0.89959597  0.18162407     0.14900
C241        C  0.89785124  0.79423651  0.20654139     0.30300
C242        C  0.89944285  0.77463977  0.16778085    -0.36000
C243        C  0.89741558  0.75271414  0.19709108     0.16300
C244        C  0.89405649  0.75031497  0.26022259     0.22100
C245        C  0.89271326  0.76991956  0.29905273    -0.34100
C246        C  0.89486443  0.79186449  0.26982022     0.16200
O247        O  0.89829320  0.81632133  0.18845979    -0.26200
C248        C  0.89579107  0.82827488  0.24076786     0.06000
C249        C  0.89373208  0.81404571  0.29314923    -0.31000
O250        O  0.89204366  0.72821799  0.27769365    -0.22900
C251        C  0.89418916  0.71631423  0.22514967    -0.02900
C252        C  0.89761909  0.73059406  0.17337139    -0.17300
H253        H  0.90179783  0.77641503  0.11820191     0.20700
H254        H  0.88972118  0.76812900  0.34831269     0.19100
H255        H  0.89109745  0.81926112  0.34083969     0.19000
H256        H  0.89974101  0.72543993  0.12545980     0.14900
C257        C  0.64500823  0.79219222  0.02356036     0.30300
C258        C  0.64752827  0.77182328  0.98803055    -0.36000
C259        C  0.64616312  0.75046461  0.02062901     0.16300
C260        C  0.64245829  0.74917578  0.08385532     0.22100
C261        C  0.63994258  0.76953355  0.11939947    -0.34100
C262        C  0.64152828  0.79088401  0.08687832     0.16200
O263        O  0.64635869  0.81404516  0.00296310    -0.26200
C264        C  0.64393093  0.82682240  0.05395165     0.06000
C265        C  0.64085713  0.81336754  0.10744352    -0.31000
O266        O  0.64204969  0.72735919  0.10486132    -0.22900
C267        C  0.64560901  0.71454940  0.05438621    -0.02900
C268        C  0.64828029  0.72796989  0.00066910    -0.17300
H269        H  0.65080282  0.77259561  0.93869669     0.20700
H270        H  0.63715352  0.76877623  0.16896599     0.19100
H271        H  0.63876521  0.81932918  0.15470374     0.19000
H272        H  0.65136028  0.72198984  0.95380392     0.14900
C273        C  0.74594990  0.64794589  0.15373774     0.30300
C274        C  0.76171695  0.65011911  0.20332007    -0.36000
C275        C  0.78559905  0.64866333  0.18809992     0.16300
C276        C  0.79340116  0.64538217  0.12814238     0.22100
C277        C  0.77764058  0.64332519  0.07851855    -0.34100
C278        C  0.75376171  0.64476880  0.09374415     0.16200
O279        O  0.72287406  0.64843981  0.15757147    -0.26200
C280        C  0.71581568  0.64565378  0.09929243     0.06000
C281        C  0.73424678  0.64330472  0.05748645    -0.31000
O282        O  0.81645929  0.64435200  0.12448691    -0.22900
C283        C  0.82353102  0.64694966  0.18282067    -0.02900
C284        C  0.80512033  0.64977237  0.22445983    -0.17300
H285        H  0.75579451  0.65269746  0.25044819     0.20700
H286        H  0.78356340  0.64063121  0.03142496     0.19100
H287        H  0.73332298  0.64062419  0.00793820     0.19000
H288        H  0.80607876  0.65231800  0.27402846     0.14900
C289        C  0.89584528  0.04699281  0.21389853     0.30300
C290        C  0.89600798  0.02921980  0.25957165    -0.36000
C291        C  0.89461457  0.00603151  0.23768272     0.16300
C292        C  0.89298815  0.00090356  0.17531496     0.22100
C293        C  0.89288853  0.01852984  0.12999176    -0.34100
C294        C  0.89445551  0.04151563  0.15172776     0.16200
O295        O  0.89707925  0.06990607  0.22314435    -0.26200
C296        C  0.89658404  0.07894591  0.16600786     0.06000
C297        C  0.89498760  0.06209411  0.11998431    -0.31000
O298        O  0.89196055  0.97826270  0.16462712    -0.22900
C299        C  0.89306966  0.96854879  0.22063985    -0.02900
C300        C  0.89475729  0.98490064  0.26821623    -0.17300
H301        H  0.89728482  0.03317726  0.30845307     0.20700
H302        H  0.89179097  0.01455556  0.08106554     0.19100
H303        H  0.89421224  0.06467911  0.07023779     0.19000
H304        H  0.89598936  0.98168373  0.31762832     0.14900
C305        C  0.89362338  0.54003440  0.21095664     0.30300
C306        C  0.89700615  0.51843917  0.18065920    -0.36000
C307        C  0.89511304  0.49814570  0.21810088     0.16300
C308        C  0.89040597  0.49923316  0.28085171     0.22100
C309        C  0.88687320  0.52063477  0.31078074    -0.34100
C310        C  0.88865192  0.54072858  0.27358221     0.16200
O311        O  0.89501451  0.56130522  0.18596736    -0.26200
C312        C  0.89079925  0.57556117  0.23351928     0.06000
C313        C  0.88667501  0.56367086  0.28889905    -0.31000
O314        O  0.88989342  0.47844952  0.30763826    -0.22900
C315        C  0.89414304  0.46361083  0.26175411    -0.02900
C316        C  0.89748552  0.47478512  0.20464927    -0.17300
H317        H  0.90107337  0.51752787  0.13172711     0.20700
H318        H  0.88310625  0.52156330  0.35989714     0.19100
H319        H  0.88312505  0.57094068  0.33423017     0.19000
H320        H  0.90134865  0.46690696  0.16024809     0.14900
C321        C  0.89670066  0.25239796  0.08540748     0.30300
C322        C  0.89759431  0.27547602  0.10739608    -0.36000
C323        C  0.89636253  0.29323375  0.06227069     0.16300
C324        C  0.89432116  0.28874042  0.99965657     0.22100
C325        C  0.89333611  0.26559704  0.97762236    -0.34100
C326        C  0.89468597  0.24779682  0.02283184     0.16200
O327        O  0.89782393  0.23311517  0.11948156    -0.26200
C328        C  0.89660212  0.21593963  0.07816091     0.06000
C329        C  0.89461769  0.22400502  0.01732233    -0.31000
O330        O  0.89506052  0.30861615  0.30138727    -0.22900
C331        C  0.89547163  0.32523339  0.00756502    -0.02900
C332        C  0.89709550  0.31693631  0.06816239    -0.17300
H333        H  0.89931048  0.27934630  0.15623877     0.20700
H334        H  0.89402290  0.26227345  0.26400667     0.19100
H335        H  0.89333250  0.21379799  0.97526203     0.19000
H336        H  0.89872645  0.32696560  0.11043841     0.14900
C337        C  0.65013438  0.04326254  0.11771580     0.30300
C338        C  0.65310497  0.02152483  0.14717823    -0.36000
C339        C  0.65168814  0.00182074  0.10908145     0.16300
C340        C  0.64752800  0.00320908  0.04612848     0.22100
C341        C  0.64467681  0.02511253  0.01642118    -0.34100
C342        C  0.64625318  0.04498130  0.05466896     0.16200
O343        O  0.65042202  0.06380844  0.14512175    -0.26200
C344        C  0.64684690  0.07906552  0.09926289     0.06000
C345        C  0.64419587  0.06843779  0.04167358    -0.31000
O346        O  0.64630684  0.98224166  0.02015543    -0.22900
C347        C  0.64983643  0.96744487  0.06736969    -0.02900
C348        C  0.65332541  0.97869475  0.12356328    -0.17300
H349        H  0.65619445  0.02006174  0.19653853     0.20700
H350        H  0.64120217  0.02656752  0.96728679     0.19100
H351        H  0.64093656  0.07672996  0.99721173     0.19000
H352        H  0.65621832  0.97089759  0.16883958     0.14900
C353        C  0.74909661  0.14615591  0.10574471     0.30300
C354        C  0.76876745  0.14448631  0.06680376    -0.36000
C355        C  0.79067822  0.14562620  0.09604263     0.16300
C356        C  0.79301211  0.14837502  0.15926463     0.22100
C357        C  0.77332814  0.14987251  0.19827618    -0.34100
C358        C  0.75139600  0.14848852  0.16910701     0.16200
O359        O  0.72701643  0.14581326  0.08796731    -0.26200
C360        C  0.71496136  0.14770114  0.14057503     0.06000
C361        C  0.72916913  0.14931144  0.19277600    -0.31000
O362        O  0.81512717  0.14932305  0.17673849    -0.22900
C363        C  0.82712603  0.14701795  0.12412628    -0.02900
C364        C  0.81285696  0.14461630  0.07230099    -0.17300
H365        H  0.76706352  0.14241849  0.01722442     0.20700
H366        H  0.77504793  0.15209854  0.24777229     0.19100
H367        H  0.72390086  0.15117354  0.24074636     0.19000
H368        H  0.81806285  0.14260874  0.02432815     0.14900
C369        C  0.64413644  0.49510633  0.05250992     0.30300
C370        C  0.64237311  0.51338478  0.09608940    -0.36000
C371        C  0.64514615  0.53638033  0.07241446     0.16300
C372        C  0.64948494  0.54082023  0.01039574     0.22100
C373        C  0.65118043  0.52273105  0.96725769    -0.34100
C374        C  0.64823641  0.49999565  0.99064340     0.16200
O375        O  0.64202557  0.47225213  0.06339257    -0.26200
C376        C  0.64301135  0.46248072  0.34191583     0.06000
C377        C  0.64455162  0.47917084  0.29485720    -0.31000
O378        O  0.65124443  0.56331983  0.99750455    -0.22900
C379        C  0.64794782  0.57373629  0.05166198    -0.02900
C380        C  0.64405895  0.55791259  0.10033235    -0.17300
H381        H  0.63891163  0.50993802  0.14465916     0.20700
H382        H  0.64750000  0.52642682  0.25241616     0.19100
H383        H  0.64583173  0.47637135  0.24534649     0.19000
H384        H  0.64070462  0.56171470  0.14865251     0.14900
C385        C  0.79106695  0.39310259  0.26921320     0.30300
C386        C  0.77100173  0.39162041  0.23171330    -0.36000
C387        C  0.74936118  0.39350813  0.26240826     0.16300
C388        C  0.74769021  0.39631588  0.32577773     0.22100
C389        C  0.76778232  0.39902162  0.02963736    -0.34100
C390        C  0.78931265  0.39625293  0.33243990     0.16200
O391        O  0.81303120  0.39184985  0.25027545    -0.26200
C392        C  0.82546899  0.39428741  0.30203503     0.06000
C393        C  0.81174873  0.39790666  0.02202711    -0.31000
O394        O  0.72581219  0.39706530  0.34524323    -0.22900
C395        C  0.71323413  0.39498753  0.29370653    -0.02900
C396        C  0.72690016  0.39280684  0.24051474    -0.17300
H397        H  0.77221724  0.38903416  0.18223020     0.20700
H398        H  0.76640926  0.40112386  0.07926178     0.19100
H399        H  0.81726127  0.39977235  0.06976191     0.19000
H400        H  0.72113297  0.39058045  0.19310885     0.14900
C401        C  0.64459993  0.28852535  0.26266999     0.30300
C402        C  0.64541127  0.26515379  0.28370698    -0.36000
C403        C  0.64463746  0.24783493  0.23769129     0.16300
C404        C  0.64330419  0.25303343  0.17515526     0.22100
C405        C  0.64247963  0.27641569  0.15411202    -0.34100
C406        C  0.64313748  0.29374042  0.20016496     0.16200
O407        O  0.64488941  0.30753136  0.29757776    -0.26200
C408        C  0.64352668  0.32513868  0.25681708     0.06000
C409        C  0.64241604  0.31757478  0.19560793    -0.31000
O410        O  0.64285603  0.23399699  0.14033688    -0.22900
C411        C  0.64381909  0.21641057  0.18126719    -0.02900
C412        C  0.64492424  0.22400972  0.24241640    -0.17300
H413        H  0.64647090  0.26075853  0.33252829     0.20700
H414        H  0.64131880  0.28081807  0.10532212     0.19100
H415        H  0.64119996  0.32814943  0.15381819     0.19000
H416        H  0.64589380  0.21345667  0.28429380     0.14900
C417        C  0.04658643  0.14773684  0.13292939     0.30300
C418        C  0.02839909  0.14654142  0.08883752    -0.36000
C419        C  0.00534992  0.14746532  0.11251746     0.16300
C420        C  0.00073008  0.14959282  0.17510454     0.22100
C421        C  0.01876219  0.15077653  0.21884234    -0.34100
C422        C  0.04160747  0.14969729  0.19534478     0.16200
O423        O  0.06944831  0.14678147  0.12192626    -0.26200
C424        C  0.07900273  0.14806667  0.17821734     0.06000
C425        C  0.06247472  0.14991432  0.22538581    -0.31000
O426        O  0.97816444  0.15009769  0.18764986    -0.22900
C427        C  0.96792886  0.14817320  0.13263972    -0.02900
C428        C  0.98393006  0.14644135  0.08385370    -0.17300
H429        H  0.03196772  0.14480269  0.03979485     0.20700
H430        H  0.01517932  0.15228317  0.26794712     0.19100
H431        H  0.06543808  0.15106213  0.27485955     0.19000
H432        H  0.98031918  0.14473646  0.03482914     0.14900
C433        C  0.49580582  0.14496932  0.12114696     0.30300
C434        C  0.51376471  0.14374105  0.16579767    -0.36000
C435        C  0.53688545  0.14482856  0.14283360     0.16300
C436        C  0.54181707  0.14709764  0.08035727     0.22100
C437        C  0.52398187  0.14823417  0.03596151    -0.34100
C438        C  0.50102080  0.14705595  0.05880155     0.16200
O439        O  0.47293322  0.14412544  0.13167589    -0.26200
C440        C  0.46356473  0.14563215  0.07521978     0.06000
C441        C  0.48023025  0.14749729  0.02828433    -0.31000
O442        O  0.56445157  0.14811913  0.06876309    -0.22900
C443        C  0.57435617  0.14639693  0.12432228    -0.02900
C444        C  0.55810679  0.14421678  0.17242298    -0.17300
H445        H  0.50997851  0.14202487  0.21481503     0.20700
H446        H  0.52778245  0.14995417  0.98694897     0.19100
H447        H  0.47740260  0.14884848  0.97875002     0.19000
H448        H  0.56143386  0.14269131  0.22168438     0.14900
C449        C  0.28926620  0.14238280  0.00368759     0.30300
C450        C  0.26600311  0.14308751  0.02520797    -0.36000
C451        C  0.24813425  0.14345863  0.31620401     0.16300
C452        C  0.25308411  0.14352240  0.25349096     0.22100
C453        C  0.27633582  0.14326756  0.23196146    -0.34100
C454        C  0.29382223  0.14301993  0.27770236     0.16200
O455        O  0.30844741  0.14249653  0.03812463    -0.26200
C456        C  0.32581470  0.14183367  0.99676873     0.06000
C457        C  0.31758856  0.14289003  0.27245212    -0.31000
O458        O  0.23395521  0.14388252  0.21892176    -0.22900
C459        C  0.21653721  0.14398926  0.26013281    -0.02900
C460        C  0.22434147  0.14373215  0.32128421    -0.17300
H461        H  0.26181642  0.14364406  0.07414504     0.20700
H462        H  0.28053005  0.14331686  0.18299638     0.19100
H463        H  0.32793440  0.14290923  0.23027571     0.19000
H464        H  0.21431586  0.14441439  0.02646018     0.14900
C465        C  0.04463321  0.39880263  0.29365788     0.30300
C466        C  0.02610654  0.40046697  0.33664924    -0.36000
C467        C  0.00332051  0.39838896  0.31216297     0.16300
C468        C  0.99923009  0.39487721  0.24980017     0.22100
C469        C  0.01762752  0.39334797  0.20705682    -0.34100
C470        C  0.04023871  0.39547763  0.23139392     0.16200
O471        O  0.06734697  0.40017568  0.30575476    -0.26200
C472        C  0.07740981  0.39777824  0.25032463     0.06000
C473        C  0.06137685  0.39483810  0.20255471    -0.31000
O474        O  0.97678455  0.39324938  0.23657826    -0.22900
C475        C  0.96615601  0.39579221  0.29095756    -0.02900
C476        C  0.98173082  0.39911133  0.33991499    -0.17300
H477        H  0.02940999  0.40207718  0.05127816     0.20700
H478        H  0.01449359  0.39063883  0.15814086     0.19100
H479        H  0.06483434  0.39252098  0.15358495     0.19000
H480        H  0.97795754  0.40009652  0.05536926     0.14900
C481        C  0.15023905  0.29379542  0.19025093     0.30300
C482        C  0.15275800  0.27348978  0.15451028    -0.36000
C483        C  0.15151618  0.25210063  0.18694771     0.16300
C484        C  0.14801348  0.25068905  0.25023321     0.22100
C485        C  0.14572295  0.27101958  0.28606761    -0.34100
C486        C  0.14708110  0.29243639  0.25367324     0.16200
O487        O  0.15046190  0.31563203  0.16936898    -0.26200
C488        C  0.14761619  0.32840484  0.22021237     0.06000
C489        C  0.14549186  0.31493617  0.27402366    -0.31000
O490        O  0.14681575  0.22879060  0.27063153    -0.22900
C491        C  0.14966396  0.21608817  0.21963365    -0.02900
C492        C  0.15272786  0.22965501  0.16632045    -0.17300
H493        H  0.15539795  0.27431424  0.10489146     0.20700
H494        H  0.14274947  0.27018024  0.33550541     0.19100
H495        H  0.14298932  0.32089061  0.32114807     0.19000
H496        H  0.15513001  0.22378796  0.11907838     0.14900
C497        C  0.49772942  0.39215075  0.03951986     0.30300
C498        C  0.51911643  0.38870260  0.40040627    -0.36000
C499        C  0.53867548  0.39082320  0.36160328     0.16300
C500        C  0.53709398  0.39631318  0.29929348     0.22100
C501        C  0.51556271  0.39955323  0.93810895    -0.34100
C502        C  0.49585804  0.39726959  0.97703768     0.16200
O503        O  0.47723913  0.39125014  0.06761126    -0.26200
C504        C  0.46191457  0.39567272  0.02269316     0.06000
C505        C  0.47242398  0.39950127  0.96513068    -0.31000
O506        O  0.55792959  0.39769578  0.27235639    -0.22900
C507        C  0.57283764  0.39291046  0.31824040    -0.02900
C508        C  0.56180556  0.38848832  0.37460789    -0.17300
H509        H  0.52070360  0.38451419  0.44925084     0.20700
H510        H  0.51397088  0.40384062  0.88934999     0.19100
H511        H  0.46405704  0.40355396  0.92133704     0.19000
H512        H  0.56973896  0.38438797  0.41895632     0.14900
C513        C  0.39210068  0.29230123  0.02165410     0.30300
C514        C  0.39117942  0.27293214  0.98177802    -0.36000
C515        C  0.39237319  0.25072087  0.01015002     0.16300
C516        C  0.39403201  0.24788472  0.07357550     0.22100
C517        C  0.39505876  0.26723872  0.11340747    -0.34100
C518        C  0.39411587  0.28942573  0.08499129     0.16200
O519        O  0.39132154  0.31458200  0.00492397    -0.26200
C520        C  0.39297734  0.32614544  0.05817497     0.06000
C521        C  0.39480798  0.31142179  0.10965687    -0.31000
O522        O  0.39458092  0.22563880  0.09049330    -0.22900
C523        C  0.39348409  0.21399491  0.03728247    -0.02900
C524        C  0.39214407  0.22866355  0.98553507    -0.17300
H525        H  0.38961525  0.27511273  0.93219890     0.20700
H526        H  0.39656223  0.26507106  0.16302104     0.19100
H527        H  0.39631297  0.31622367  0.15797913     0.19000
H528        H  0.39096225  0.22379420  0.93720181     0.14900
C529        C  0.24659917  0.39953386  0.12876542     0.30300
C530        C  0.26277785  0.40037015  0.07966733    -0.36000
C531        C  0.28650189  0.39900135  0.09623825     0.16300
C532        C  0.29383178  0.39702058  0.15701312     0.22100
C533        C  0.27762446  0.39619081  0.20621084    -0.34100
C534        C  0.25385090  0.39752531  0.18960640     0.16200
O535        O  0.22358914  0.40041109  0.12360362    -0.26200
C536        C  0.21592515  0.39899350  0.18182489     0.06000
C537        C  0.23394918  0.39713615  0.22500382    -0.31000
O538        O  0.31688818  0.39601292  0.16178135    -0.22900
C539        C  0.32437567  0.39728661  0.10330914    -0.02900
C540        C  0.30625968  0.39919645  0.06054612    -0.17300
H541        H  0.25725907  0.40195041  0.03187054     0.20700
H542        H  0.28313824  0.39454915  0.25398914     0.19100
H543        H  0.23252312  0.39559935  0.27488584     0.19000
H544        H  0.30754266  0.40061796  0.01061444     0.14900
C545        C  0.14626993  0.99929970  0.15635765     0.30300
C546        C  0.14889643  0.02098059  0.12620062    -0.36000
C547        C  0.14742361  0.04081803  0.16382834     0.16300
C548        C  0.14355132  0.03959835  0.22697814     0.22100
C549        C  0.14099283  0.01776445  0.25735237    -0.34100
C550        C  0.14259028  0.99776883  0.21956263     0.16200
O551        O  0.14700555  0.97862645  0.12965167    -0.26200
C552        C  0.14388822  0.96347913  0.17610987     0.02800
C553        C  0.14108140  0.97431633  0.23337491    -0.31000
O554        O  0.14276180  0.06062848  0.25270755    -0.22900
C555        C  0.14625856  0.07530933  0.20515281    -0.02900
C556        C  0.14926323  0.06391527  0.14893444    -0.17300
H557        H  0.15196079  0.02229383  0.07676857     0.20700
H558        H  0.13796310  0.01645069  0.30678797     0.19100
H559        H  0.13824111  0.96614479  0.27824300     0.19000
H560        H  0.15231947  0.07159324  0.10353999     0.14900
C561        C  0.04068767  0.89256470  0.19134124     0.30300
C562        C  0.02276591  0.89084991  0.23551168    -0.36000
C563        C  0.99995842  0.89392327  0.21336031     0.16300
C564        C  0.99491473  0.89816750  0.15172198     0.22100
C565        C  0.01299283  0.89994398  0.10717054    -0.34100
C566        C  0.03602787  0.89704707  0.12957645     0.16200
O567        O  0.06321729  0.89067093  0.20290875    -0.26200
C568        C  0.07342017  0.89402457  0.14814568     0.06000
C569        C  0.05741656  0.89809657  0.10040840    -0.31000
O570        O  0.97209994  0.90037132  0.14188912    -0.22900
C571        C  0.96266893  0.89768006  0.19816756    -0.02900
C572        C  0.97919627  0.89364965  0.24420257    -0.17300
H573        H  0.02640450  0.88753914  0.28403956     0.20700
H574        H  0.00937185  0.90348852  0.05876269     0.19100
H575        H  0.06100984  0.90152238  0.05187325     0.19000
H576        H  0.97628957  0.89078825  0.29331687     0.14900
C577        C  0.14855596  0.50250689  0.26257760     0.30300
C578        C  0.15164257  0.52091142  0.30424919    -0.36000
C579        C  0.14870020  0.54351504  0.28005756     0.16300
C580        C  0.14317669  0.54802042  0.21883611     0.22100
C581        C  0.14003813  0.52941747  0.17671517    -0.34100
C582        C  0.14294188  0.50655544  0.20116052     0.16200
O583        O  0.15043607  0.48007320  0.27623311    -0.26200
C584        C  0.14602958  0.46930968  0.22310500     0.06000
C585        C  0.14118141  0.48484013  0.17446804    -0.31000
O586        O  0.14099813  0.57083594  0.20727632    -0.22900
C587        C  0.14507278  0.58073824  0.26216538    -0.02900
C588        C  0.14998549  0.56452865  0.30869892    -0.17300
H589        H  0.15594294  0.51778365  0.35246243     0.20700
H590        H  0.13552880  0.53252646  0.12864253     0.19100
H591        H  0.13699303  0.48073770  0.12681009     0.19000
H592        H  0.15373000  0.56779112  0.35710373     0.14900
C593        C  0.03708947  0.64659358  0.31487266     0.30300
C594        C  0.01531850  0.64296379  0.34460374    -0.36000
C595        C  0.99526521  0.64538086  0.30703216     0.16300
C596        C  0.99669799  0.65084229  0.24465076     0.22100
C597        C  0.01829049  0.65467742  0.21528415    -0.34100
C598        C  0.03817306  0.65233609  0.25264241     0.16200
O599        O  0.05875537  0.64538884  0.00767193    -0.26200
C600        C  0.07276237  0.64961406  0.29324551     0.06000
C601        C  0.06122378  0.65443596  0.23793822    -0.31000
O602        O  0.97604790  0.65164379  0.21765780    -0.22900
C603        C  0.96098429  0.64680493  0.26309946    -0.02900
C604        C  0.97186156  0.64284020  0.32004906    -0.17300
H605        H  0.01454297  0.64028825  0.06100547     0.20700
H606        H  0.01951538  0.65901273  0.16644468     0.19100
H607        H  0.06878669  0.65861570  0.19307810     0.19000
H608        H  0.96376152  0.63842720  0.36407298     0.14900
C609        C  0.14438348  0.75418257  0.01305218     0.30300
C610        C  0.14548597  0.77764304  0.99302055    -0.36000
C611        C  0.14496319  0.79466095  0.03976412     0.16300
C612        C  0.14350345  0.78914863  0.10212114     0.22100
C613        C  0.14237356  0.76564594  0.12220372    -0.34100
C614        C  0.14286588  0.74859940  0.07536920     0.16200
O615        O  0.14470457  0.73541228  0.97730547    -0.26200
C616        C  0.14337613  0.71757171  0.01733267     0.06000
C617        C  0.14216782  0.72474902  0.07888291    -0.31000
O618        O  0.14319945  0.80803007  0.13761851    -0.22900
C619        C  0.14443268  0.82579356  0.09720168    -0.02900
C620        C  0.14556592  0.81846071  0.03585258    -0.17300
H621        H  0.14665838  0.78232834  0.94438038     0.20700
H622        H  0.14118037  0.76095484  0.17083289     0.19100
H623        H  0.14104674  0.71390829  0.12024616     0.19000
H624        H  0.14659858  0.82918806  0.99427076     0.14900
C625        C  0.39598747  0.04062276  0.09609932     0.30300
C626        C  0.39475144  0.02292937  0.14126119    -0.36000
C627        C  0.39632292  0.99990426  0.11967012     0.16300
C628        C  0.39883380  0.99444931  0.05774420     0.22100
C629        C  0.40020646  0.01230231  0.01223342    -0.34100
C630        C  0.39872833  0.03554640  0.03398660     0.16200
O631        O  0.39463543  0.06326492  0.10672260    -0.26200
C632        C  0.39660969  0.07311963  0.05096209     0.06000
C633        C  0.39928448  0.05677530  0.00356409    -0.31000
O634        O  0.39966747  0.97148742  0.04851983    -0.22900
C635        C  0.39776519  0.96236293  0.10544242    -0.02900
C636        C  0.39567372  0.97925411  0.15129121    -0.17300
H637        H  0.39263128  0.02687983  0.18997897     0.20700
H638        H  0.40224184  0.00835122  0.96351920     0.19100
H639        H  0.40111311  0.06003623  0.95428445     0.19000
H640        H  0.39380078  0.97665521  0.20084622     0.14900
C641        C  0.50008267  0.89370187  0.09467109     0.30300
C642        C  0.51808834  0.89356438  0.05052186    -0.36000
C643        C  0.54089818  0.89553459  0.07365949     0.16300
C644        C  0.54581241  0.89734453  0.13610742     0.22100
C645        C  0.52767665  0.89759057  0.18052112    -0.34100
C646        C  0.50469029  0.89577357  0.15723634     0.16200
O647        O  0.47754479  0.89217269  0.08262584    -0.26200
C648        C  0.46735035  0.89338829  0.13794764     0.06000
C649        C  0.48332611  0.89568243  0.18641966    -0.31000
O650        O  0.56860586  0.89866184  0.14702721    -0.22900
C651        C  0.57821267  0.89781449  0.09070655    -0.02900
C652        C  0.56179770  0.89590649  0.04344579    -0.17300
H653        H  0.51450697  0.89202756  0.00145959     0.20700
H654        H  0.53125203  0.89913407  0.22957165     0.19100
H655        H  0.47973196  0.89711490  0.23555304     0.19000
H656        H  0.56481801  0.89445707  0.32784973     0.14900
C657        C  0.29169755  0.89796466  0.17500027     0.30300
C658        C  0.27099946  0.89993375  0.20993409    -0.36000
C659        C  0.24990795  0.89843554  0.17660651     0.16300
C660        C  0.24917499  0.89559732  0.11310844     0.22100
C661        C  0.26984964  0.89360788  0.07824807    -0.34100
C662        C  0.29090921  0.89483742  0.11161890     0.16200
O663        O  0.31338253  0.89836301  0.19664304    -0.26200
C664        C  0.32657884  0.89534844  0.14633946     0.06000
C665        C  0.31352815  0.89307480  0.09223553    -0.31000
O666        O  0.22753559  0.89446052  0.09149499    -0.22900
C667        C  0.21424881  0.89633967  0.14196937    -0.02900
C668        C  0.22720687  0.89883643  0.19621034    -0.17300
H669        H  0.27131252  0.90229368  0.25958807     0.20700
H670        H  0.26953087  0.89087156  0.02874412     0.19100
H671        H  0.31983407  0.89043466  0.04540414     0.19000
H672        H  0.22078858  0.90056951  0.24324743     0.14900
C673        C  0.39539036  0.54558321  0.05740391     0.30300
C674        C  0.39728848  0.52706353  0.10077512    -0.36000
C675        C  0.39508480  0.50421504  0.07673286     0.16300
C676        C  0.39112628  0.50011862  0.01456587     0.22100
C677        C  0.38794514  0.51862733  0.30798937    -0.34100
C678        C  0.39065053  0.54117797  0.33188290     0.16200
O679        O  0.39722477  0.56835084  0.06864871    -0.26200
C680        C  0.39447398  0.57825926  0.34941545     0.06000
C681        C  0.39035781  0.56222228  0.30246894    -0.31000
O682        O  0.38985790  0.47768134  0.00142827    -0.22900
C683        C  0.39310156  0.46699502  0.05558645    -0.02900
C684        C  0.39644142  0.48255228  0.10448567    -0.17300
H685        H  0.40047734  0.53022749  0.14947108     0.20700
H686        H  0.38475399  0.51553289  0.25924448     0.19100
H687        H  0.38766168  0.56561325  0.25352753     0.19000
H688        H  0.39952344  0.47850491  0.15289731     0.14900
C689        C  0.50252490  0.64489587  0.30263602     0.30300
C690        C  0.52439478  0.64214165  0.27301095    -0.36000
C691        C  0.54438643  0.64262783  0.97442225     0.16300
C692        C  0.54277999  0.64677427  0.03731464     0.22100
C693        C  0.52113926  0.64971546  0.06676209    -0.34100
C694        C  0.50138860  0.64802563  0.02885132     0.16200
O695        O  0.48152531  0.64376122  0.27656327    -0.26200
C696        C  0.46678463  0.64743154  0.32361110     0.06000
C697        C  0.47835203  0.64997238  0.04329745    -0.31000
O698        O  0.56334943  0.64755397  0.06457736    -0.22900
C699        C  0.57852464  0.64400979  0.01883514    -0.02900
C700        C  0.56782384  0.64088558  0.96140494    -0.17300
H701        H  0.52578798  0.63873624  0.22385937     0.20700
H702        H  0.51979144  0.65312350  0.11593591     0.19100
H703        H  0.47069190  0.65331556  0.08837301     0.19000
H704        H  0.57598390  0.63891078  0.25386535     0.14900
C705        C  0.24820471  0.64565270  0.33607823     0.30300
C706        C  0.26919237  0.64253539  0.03684452    -0.36000
C707        C  0.28990740  0.64446879  0.34034141     0.16300
C708        C  0.29139355  0.64791480  0.27701400     0.22100
C709        C  0.27113059  0.65059779  0.24084879    -0.34100
C710        C  0.24968972  0.64940597  0.27287302     0.16200
O711        O  0.22700758  0.64468082  0.02211554    -0.26200
C712        C  0.21365706  0.64873395  0.30543391     0.06000
C713        C  0.22726442  0.65150161  0.25218618    -0.31000
O714        O  0.31329717  0.64879592  0.25693287    -0.22900
C715        C  0.32595333  0.64612903  0.30825477    -0.02900
C716        C  0.31234219  0.64338256  0.36147112    -0.17300
H717        H  0.26847642  0.63891533  0.08610297     0.20700
H718        H  0.27202854  0.65367903  0.19136574     0.19100
H719        H  0.22143650  0.65451668  0.20505041     0.19000
H720        H  0.31896860  0.64016323  0.07210691     0.14900
C721        C  0.39476648  0.75250078  0.27462056     0.30300
C722        C  0.39374702  0.77576245  0.29562327    -0.36000
C723        C  0.39450190  0.79329297  0.24955387     0.16300
C724        C  0.39604057  0.78836880  0.18705404     0.22100
C725        C  0.39702695  0.76512184  0.16605402    -0.34100
C726        C  0.39636212  0.74761012  0.21211195     0.16200
O727        O  0.39454600  0.73331161  0.30948650    -0.26200
C728        C  0.39605809  0.71596549  0.26860098     0.06000
C729        C  0.39721144  0.72384694  0.20744993    -0.31000
O730        O  0.39668297  0.80752839  0.15217291    -0.22900
C731        C  0.39560871  0.82493362  0.19296694    -0.02900
C732        C  0.39421915  0.81710379  0.25415840    -0.17300
H733        H  0.39258621  0.77993560  0.34440576     0.20700
H734        H  0.39835880  0.76095667  0.11728788     0.19100
H735        H  0.39852531  0.71351410  0.16561029     0.19000
H736        H  0.39325209  0.82749197  0.29596388     0.14900
O737        O  0.39561193  0.68418827  0.67561860    -0.71200
O738        O  0.39588765  0.61849234  0.38080480    -0.71500
O739        O  0.42881658  0.65183202  0.69879311    -0.71300
O740        O  0.36261035  0.65061879  0.69196553    -0.71300
O741        O  0.36393697  0.64372316  0.59298433    -0.71300
O742        O  0.43093211  0.64325684  0.60088867    -0.71300
O743        O  0.39659632  0.61100962  0.61497145    -0.71200
O744        O  0.39797598  0.67588292  0.57758865    -0.71400
V745        V  0.39575575  0.65115242  0.69310130     1.35200
V746        V  0.39736949  0.64361870  0.59853925     1.35200
C747        C  0.39676081  0.69110955  0.61970913     0.78000
C748        C  0.39570009  0.60358125  0.67019268     0.78100
C749        C  0.44119322  0.64762279  0.65157616     0.77900
C750        C  0.35197691  0.64687465  0.64173794     0.77900
O751        O  0.39573138  0.85673657  0.45245850    -0.71200
O752        O  0.39737822  0.92219355  0.41100114    -0.71500
O753        O  0.42964036  0.88861932  0.42934028    -0.71300
O754        O  0.36343726  0.89037611  0.43243793    -0.71300
O755        O  0.36385318  0.89823607  0.53091304    -0.71300
O756        O  0.43101872  0.89777063  0.52698015    -0.71300
O757        O  0.39746667  0.93036890  0.50930026    -0.71200
O758        O  0.39731241  0.86571286  0.55016213    -0.71400
V759        V  0.39657654  0.88960801  0.43325471     1.35200
V760        V  0.39741314  0.89784810  0.52745043     1.35200
C761        C  0.39635305  0.85019877  0.50872485     0.78000
C762        C  0.39736678  0.93737896  0.45365459     0.78100
C763        C  0.44163678  0.89313682  0.47687030     0.77900
C764        C  0.35230832  0.89462698  0.48170482     0.77900
O765        O  0.14481757  0.68643257  0.60782728    -0.71200
O766        O  0.14432372  0.62123337  0.56494849    -0.71500
O767        O  0.11149870  0.65442941  0.58253803    -0.71300
O768        O  0.17765902  0.65336636  0.58864257    -0.71300
O769        O  0.17608069  0.64530305  0.35417496    -0.71300
O770        O  0.10899436  0.64430473  0.34808330    -0.71300
O771        O  0.14345240  0.61273144  0.33056371    -0.71200
O772        O  0.14182662  0.67686905  0.37339982    -0.71400
V773        V  0.14453134  0.65371649  0.58788809     1.35200
V774        V  0.14259084  0.64498689  0.34961745     1.35200
C775        C  0.14288788  0.69279131  0.33253683     0.78000
C776        C  0.14405069  0.60579115  0.60752866     0.78100
C777        C  0.09916290  0.64960549  0.62959899     0.77900
C778        C  0.18837434  0.64881916  0.63837844     0.77900
O779        O  0.14425117  0.85746207  0.50410178    -0.71200
O780        O  0.14311562  0.92299959  0.54321292    -0.71500
O781        O  0.11066666  0.88952179  0.52489275    -0.71300
O782        O  0.17694314  0.89110641  0.52409890    -0.71300
O783        O  0.17697165  0.89828876  0.42498294    -0.71300
O784        O  0.10979454  0.89920955  0.42725126    -0.71300
O785        O  0.14409029  0.93115017  0.44461936    -0.71200
O786        O  0.14281583  0.86651963  0.40613426    -0.71400
V787        V  0.14374422  0.89039272  0.52214996     1.35200
V788        V  0.14342005  0.89862744  0.42765331     1.35200
C789        C  0.14347493  0.85095792  0.44802352     0.78000
C790        C  0.14366579  0.93816780  0.49996393     0.78100
C791        C  0.09890979  0.89436609  0.47703969     0.77900
C792        C  0.18829646  0.89494239  0.47475345     0.77900
O793        O  0.35602050  0.39675245  0.36675406    -0.71200
O794        O  0.42113277  0.39706726  0.32618783    -0.71500
O795        O  0.38867653  0.36361640  0.34593789    -0.71300
O796        O  0.38846474  0.42993048  0.34607251    -0.71300
O797        O  0.39758647  0.43023397  0.44393036    -0.71300
O798        O  0.39633784  0.36317842  0.44467397    -0.71300
O799        O  0.42938431  0.39608111  0.42457100    -0.71200
O800        O  0.36470082  0.39720108  0.46487639    -0.71400
V801        V  0.38870823  0.39682769  0.34820066     1.35200
V802        V  0.39687331  0.39667802  0.44262041     1.35200
C803        C  0.34935984  0.39716985  0.42278176     0.78000
C804        C  0.43629734  0.39643984  0.36891750     0.78100
C805        C  0.39249889  0.35208439  0.39500246     0.77900
C806        C  0.39296926  0.44138138  0.39448058     0.77900
O807        O  0.18271752  0.39798465  0.58367483    -0.71200
O808        O  0.11670051  0.39941045  0.61369640    -0.71500
O809        O  0.14879256  0.36554262  0.59998286    -0.71300
O810        O  0.15046350  0.43189098  0.59839788    -0.71300
O811        O  0.14316307  0.43252852  0.49948744    -0.71300
O812        O  0.14371079  0.36545856  0.50008289    -0.71300
O813        O  0.11059757  0.39853566  0.51426671    -0.71200
O814        O  0.17605260  0.39926142  0.48448007    -0.71400
V815        V  0.14957659  0.39874132  0.59698554     1.35200
V816        V  0.14348635  0.39894293  0.50149507     1.35200
C817        C  0.19051696  0.39848847  0.52865000     0.78000
C818        C  0.10246407  0.39888545  0.56877738     0.78100
C819        C  0.14614349  0.35419260  0.55044515     0.77900
C820        C  0.14684648  0.44353407  0.54935710     0.77900
O821        O  0.35726303  0.14422549  0.40600406    -0.71200
O822        O  0.42283772  0.14444464  0.44370083    -0.71500
O823        O  0.39026735  0.17750727  0.42269489    -0.71300
O824        O  0.38992202  0.11128034  0.42854582    -0.71300
O825        O  0.39881312  0.10971357  0.33058162    -0.71300
O826        O  0.39837542  0.17672571  0.65263874    -0.71300
O827        O  0.43057851  0.14434675  0.34496961    -0.71200
O828        O  0.36637366  0.14233568  0.63690514    -0.71400
V829        V  0.39020041  0.14434596  0.42328647     1.35200
V830        V  0.39861524  0.14314494  0.65791907     1.35200
C831        C  0.35049349  0.14315909  0.35015705     0.78000
C832        C  0.43781334  0.14458926  0.40024262     0.78100
C833        C  0.39384773  0.18851798  0.37264972     0.77900
C834        C  0.39452619  0.09918806  0.38132677     0.77900
O835        O  0.18467064  0.14616096  0.52082428    -0.71200
O836        O  0.11911734  0.14669271  0.48244136    -0.71500
O837        O  0.15204408  0.17956815  0.50321560    -0.71300
O838        O  0.15175719  0.11330650  0.49880275    -0.71300
O839        O  0.14319302  0.11159185  0.59697856    -0.71300
O840        O  0.14407295  0.17869726  0.60182791    -0.71300
O841        O  0.11121598  0.14581390  0.58105264    -0.71200
O842        O  0.17606260  0.14468312  0.61898855    -0.71400
V843        V  0.15175748  0.14639613  0.50326939     1.35200
V844        V  0.14380460  0.14520647  0.59781550     1.35200
C845        C  0.19143364  0.14536986  0.57673464     0.78000
C846        C  0.10404567  0.14647582  0.52569054     0.78100
C847        C  0.14810029  0.19044999  0.55289493     0.77900
C848        C  0.14727885  0.10111773  0.54648841     0.77900
O849        O  0.64454169  0.35659637  0.66764133    -0.71200
O850        O  0.64431498  0.42202029  0.70798872    -0.71500
O851        O  0.61141065  0.38844712  0.69463827    -0.71300
O852        O  0.67751347  0.39019644  0.68212291    -0.71300
O853        O  0.67507000  0.39759142  0.58329589    -0.71300
O854        O  0.60831839  0.39832508  0.59745495    -0.71300
O855        O  0.64283633  0.43033891  0.60958450    -0.71200
O856        O  0.64066448  0.36577253  0.57021701    -0.71400
V857        V  0.64439439  0.38944927  0.68621383     1.35200
V858        V  0.64175420  0.39785818  0.59207875     1.35200
C859        C  0.64243994  0.35016697  0.61176208     0.78000
C860        C  0.64388086  0.43728465  0.66500963     0.78100
C861        C  0.59859223  0.39322545  0.64862088     0.77900
C862        C  0.68756094  0.39406556  0.63089272     0.77900
O863        O  0.64437976  0.18541233  0.44398375    -0.71200
O864        O  0.64503709  0.12015231  0.40236228    -0.71500
O865        O  0.61166020  0.15257275  0.42005445    -0.71300
O866        O  0.67790645  0.15277365  0.42468872    -0.71300
O867        O  0.67714767  0.14530215  0.52366968    -0.71300
O868        O  0.61012364  0.14221457  0.51719555    -0.71300
O869        O  0.64550227  0.11149065  0.50067706    -0.71200
O870        O  0.64200331  0.17588704  0.54156026    -0.71400
V871        V  0.64471921  0.15261802  0.42470916     1.35200
V872        V  0.64368668  0.14389654  0.51888826     1.35200
C873        C  0.64289656  0.19164332  0.50017930     0.78000
C874        C  0.64579763  0.10477503  0.44503228     0.78100
C875        C  0.59959497  0.14700826  0.46700283     0.77900
C876        C  0.68884309  0.14905255  0.47455371     0.77900
O877        O  0.89437619  0.35726664  0.60417450    -0.71200
O878        O  0.89578798  0.42260704  0.56293079    -0.71500
O879        O  0.92820241  0.38922277  0.58071868    -0.71300
O880        O  0.86190038  0.39071225  0.58530362    -0.71300
O881        O  0.86286823  0.39784708  0.35080101    -0.71300
O882        O  0.92977327  0.39935678  0.34584022    -0.71300
O883        O  0.89536096  0.43101059  0.32922268    -0.71200
O884        O  0.89707562  0.36616901  0.36835863    -0.71400
V885        V  0.89509996  0.39007419  0.58521392     1.35200
V886        V  0.89627273  0.39843282  0.34662218     1.35200
C887        C  0.89620328  0.35084357  0.32637381     0.78000
C888        C  0.89595595  0.43774985  0.60563654     0.78100
C889        C  0.94027285  0.39377736  0.62814303     0.77900
C890        C  0.85107120  0.39477323  0.63513322     0.77900
O891        O  0.89715424  0.18430908  0.48552930    -0.71200
O892        O  0.89651983  0.11886266  0.52525624    -0.71500
O893        O  0.92995578  0.15146904  0.50772540    -0.71300
O894        O  0.86365707  0.15165562  0.50421548    -0.71300
O895        O  0.86413469  0.14351369  0.40588111    -0.71300
O896        O  0.93129979  0.14323434  0.40950669    -0.71300
O897        O  0.89714182  0.11087771  0.42683574    -0.71200
O898        O  0.89801688  0.17576106  0.38746724    -0.71400
V899        V  0.89685792  0.15143316  0.50370905     1.35200
V900        V  0.89766088  0.14349669  0.40930161     1.35200
C901        C  0.89755698  0.19108652  0.42950302     0.78000
C902        C  0.89650522  0.10378344  0.48242253     0.78100
C903        C  0.94195473  0.14729974  0.45985072     0.77900
C904        C  0.85256452  0.14760098  0.45486080     0.77900
O905        O  0.68428533  0.64372023  0.36069943    -0.71200
O906        O  0.61878632  0.64419423  0.32393479    -0.71500
O907        O  0.65190604  0.67721619  0.34093529    -0.71300
O908        O  0.65110411  0.61083655  0.34263667    -0.71300
O909        O  0.64326237  0.61036749  0.44132732    -0.71300
O910        O  0.64402881  0.67752653  0.43960218    -0.71300
O911        O  0.61115279  0.64436920  0.42274013    -0.71200
O912        O  0.67612795  0.64388253  0.45921631    -0.71400
V913        V  0.65140658  0.64397332  0.34402938     1.35200
V914        V  0.64380642  0.64401642  0.43883439     1.35200
C915        C  0.69125949  0.64388158  0.41641467     0.78000
C916        C  0.60386696  0.64446471  0.36749322     0.78100
C917        C  0.64795659  0.68870289  0.38967778     0.77900
C918        C  0.64686517  0.59926897  0.39150971     0.77900
O919        O  0.85628055  0.64618488  0.58343705    -0.71200
O920        O  0.92154271  0.64493358  0.62264299    -0.71500
O921        O  0.88968192  0.67866862  0.60281538    -0.71300
O922        O  0.88816222  0.61241484  0.60438582    -0.71300
O923        O  0.89764727  0.61152527  0.50676237    -0.71300
O924        O  0.89696038  0.67863459  0.50379461    -0.71300
O925        O  0.92963517  0.64582257  0.52408281    -0.71200
O926        O  0.86489125  0.64460343  0.48530132    -0.71400
V927        V  0.88904088  0.64551000  0.60135861     1.35200
V928        V  0.89711288  0.64513641  0.50684305     1.35200
C929        C  0.84956490  0.64549222  0.52753256     0.78000
C930        C  0.93664716  0.64563073  0.57955452     0.78100
C931        C  0.89359677  0.68995072  0.55337877     0.77900
C932        C  0.89293214  0.60063323  0.55664309     0.77900
O933        O  0.68378163  0.89503971  0.42151090    -0.71200
O934        O  0.61821759  0.89761974  0.45694376    -0.71500
O935        O  0.64924150  0.86325185  0.43713930    -0.71300
O936        O  0.65271821  0.92949739  0.44251180    -0.71300
O937        O  0.64407902  0.93176922  0.34454795    -0.71300
O938        O  0.64368447  0.86485751  0.67268902    -0.71300
O939        O  0.61111161  0.89809353  0.35794471    -0.71200
O940        O  0.67657133  0.89824441  0.65835777    -0.71400
V941        V  0.65088000  0.89641149  0.43758213     1.35200
V942        V  0.64423316  0.89831981  0.67780820     1.35200
C943        C  0.69103138  0.89627848  0.36602607     0.78000
C944        C  0.60353895  0.89783937  0.41300530     0.78100
C945        C  0.64587626  0.85262440  0.38676806     0.77900
C946        C  0.64874554  0.94197352  0.39508249     0.77900
O947        O  0.85672267  0.89591469  0.53510219    -0.71200
O948        O  0.92220140  0.89798086  0.49834405    -0.71500
O949        O  0.89078821  0.86388076  0.52030344    -0.71300
O950        O  0.88816204  0.92998712  0.51201199    -0.71300
O951        O  0.89721578  0.93233419  0.60968410    -0.71300
O952        O  0.89682928  0.86530803  0.61974885    -0.71300
O953        O  0.92961316  0.89823061  0.59718353    -0.71200
O954        O  0.86465199  0.89914728  0.63327571    -0.71400
V955        V  0.88958210  0.89698827  0.51839483     1.35200
V956        V  0.89695146  0.89875944  0.61310456     1.35200
C957        C  0.84965297  0.89732773  0.59065023     0.78000
C958        C  0.93701831  0.89794585  0.54194918     0.78100
C959        C  0.89407097  0.85331172  0.57107291     0.77900
C960        C  0.89249699  0.94244466  0.55873693     0.77900
C961        C  0.74693808  0.89591089  0.63210336     0.30300
C962        C  0.76301352  0.89624018  0.58274311    -0.36000
C963        C  0.78677962  0.89622779  0.59924823     0.16300
C964        C  0.79419182  0.89597549  0.66016031     0.22100
C965        C  0.77765927  0.89413647  0.37621865    -0.34100
C966        C  0.75395975  0.89461792  0.35897580     0.16200
O967        O  0.72391033  0.89622173  0.62727228    -0.26200
C968        C  0.71611150  0.89566033  0.35075269     0.06000
C969        C  0.73405516  0.89406668  0.39409855    -0.31000
O970        O  0.81722613  0.89635391  0.66498639    -0.22900
C971        C  0.82464565  0.89677226  0.60646088    -0.02900
C972        C  0.80651648  0.89668521  0.56349277    -0.17300
H973        H  0.75740433  0.89664115  0.53488896     0.20700
H974        H  0.78302022  0.89291714  0.42417189     0.19100
H975        H  0.73257216  0.89293657  0.44403093     0.19000
H976        H  0.80779082  0.89709099  0.51346731     0.14900
C977        C  0.89668667  0.79362291  0.53714756     0.30300
C978        C  0.89845331  0.77410334  0.49829829    -0.36000
C979        C  0.89682572  0.75213094  0.52740217     0.16300
C980        C  0.89373948  0.74958523  0.59059197     0.22100
C981        C  0.89228435  0.76915181  0.62970223    -0.34100
C982        C  0.89394850  0.79117317  0.60047803     0.16200
O983        O  0.89711764  0.81571125  0.51914810    -0.26200
C984        C  0.89487054  0.82764340  0.57154466     0.06000
C985        C  0.89291984  0.81336414  0.62391054    -0.31000
O986        O  0.89220081  0.72740305  0.60777241    -0.22900
C987        C  0.89436357  0.71564226  0.55494788    -0.02900
C988        C  0.89737049  0.73008137  0.50334501    -0.17300
H989        H  0.90085043  0.77599341  0.44883949     0.20700
H990        H  0.88976563  0.76730302  0.67921352     0.19100
H991        H  0.89063360  0.81855909  0.67173596     0.19000
H992        H  0.89942183  0.72507080  0.45530122     0.14900
C993        C  0.64682522  0.79218003  0.35618674     0.30300
C994        C  0.64946217  0.77175502  0.32074860    -0.36000
C995        C  0.64840923  0.75039448  0.35361811     0.16300
C996        C  0.64490441  0.74919758  0.41693339     0.22100
C997        C  0.64234660  0.76957737  0.45229182    -0.34100
C998        C  0.64358691  0.79089052  0.41958090     0.16200
O999        O  0.64761291  0.81406561  0.33543258    -0.26200
C1000       C  0.64504786  0.82685117  0.38643715     0.06000
C1001       C  0.64248499  0.81336403  0.44002943    -0.31000
O1002       O  0.64439749  0.72742625  0.43820558    -0.22900
C1003       C  0.64769322  0.71448309  0.38788185    -0.02900
C1004       C  0.65033379  0.72781024  0.33390965    -0.17300
H1005       H  0.65241316  0.77248064  0.27124706     0.20700
H1006       H  0.63961113  0.76885502  0.50186369     0.19100
H1007       H  0.64035558  0.81930701  0.48729503     0.19000
H1008       H  0.65307043  0.72171070  0.28700846     0.14900
C1009       C  0.74680375  0.64661201  0.48522039     0.30300
C1010       C  0.76286935  0.64874098  0.53412479    -0.36000
C1011       C  0.78665775  0.64736075  0.51786990     0.16300
C1012       C  0.79413401  0.64419949  0.45757954     0.22100
C1013       C  0.77805595  0.64212424  0.40864072    -0.34100
C1014       C  0.75425649  0.64349110  0.42489642     0.16200
O1015       O  0.72374792  0.64708223  0.49006005    -0.26200
C1016       C  0.71632222  0.64430095  0.43209499     0.06000
C1017       C  0.73450826  0.64198673  0.38950962    -0.31000
O1018       O  0.81719375  0.64321190  0.45303051    -0.22900
C1019       C  0.82456028  0.64569474  0.51117153    -0.02900
C1020       C  0.80635200  0.64838152  0.55350176    -0.17300
H1021       H  0.75722978  0.65119218  0.58155159     0.20700
H1022       H  0.78366895  0.63939767  0.36133632     0.19100
H1023       H  0.73327605  0.63936067  0.33999585     0.19000
H1024       H  0.80752552  0.65072432  0.60313560     0.14900
C1025       C  0.89576795  0.04648654  0.54382716     0.30300
C1026       C  0.89746207  0.02869134  0.58921669    -0.36000
C1027       C  0.89470673  0.00553757  0.56798036     0.16300
C1028       C  0.89040323  0.00044659  0.50650533     0.22100
C1029       C  0.88871271  0.01811538  0.46141970    -0.34100
C1030       C  0.89168134  0.04109312  0.48244814     0.16200
O1031       O  0.89799514  0.06934786  0.55264569    -0.26200
C1032       C  0.89545170  0.07849679  0.49602924     0.06000
C1033       C  0.89152319  0.06173031  0.45069231    -0.31000
O1034       O  0.88880726  0.97779307  0.49620704    -0.22900
C1035       C  0.89220662  0.96804594  0.55155855    -0.02900
C1036       C  0.89594133  0.98439831  0.59831991    -0.17300
H1037       H  0.90091975  0.03260206  0.63739237     0.20700
H1038       H  0.88556109  0.01416778  0.41311199     0.19100
H1039       H  0.88884714  0.06440958  0.40145788     0.19000
H1040       H  0.89935433  0.98117468  0.64699422     0.14900
C1041       C  0.89604990  0.53925541  0.53963161     0.30300
C1042       C  0.89924581  0.51748480  0.51002668    -0.36000
C1043       C  0.89710611  0.49738066  0.54814093     0.16300
C1044       C  0.89240025  0.49881092  0.61085412     0.22100
C1045       C  0.88913469  0.52035960  0.64010041    -0.34100
C1046       C  0.89108718  0.54023648  0.60223765     0.16200
O1047       O  0.89736957  0.56043264  0.51394354    -0.26200
C1048       C  0.89308128  0.57486714  0.56110373     0.06000
C1049       C  0.88905364  0.56319946  0.61681440    -0.31000
O1050       O  0.89150899  0.47817469  0.63829354    -0.22900
C1051       C  0.89550619  0.46307771  0.59289558    -0.02900
C1052       C  0.89907336  0.47392443  0.53544861    -0.17300
H1053       H  0.90323250  0.51629759  0.46108852     0.20700
H1054       H  0.88538380  0.52154662  0.68921144     0.19100
H1055       H  0.88536567  0.57063405  0.66188029     0.19000
H1056       H  0.90276728  0.46576915  0.49130212     0.14900
C1057       C  0.89721413  0.25269914  0.42086717     0.30300
C1058       C  0.89765761  0.27581153  0.44314581    -0.36000
C1059       C  0.89677871  0.29367816  0.39804515     0.16300
C1060       C  0.89548261  0.28920069  0.33528802     0.22100
C1061       C  0.89498322  0.26608935  0.31302505    -0.34100
C1062       C  0.89596758  0.24822565  0.35810009     0.16200
O1063       O  0.89798051  0.23327907  0.45468827    -0.26200
C1064       C  0.89729023  0.21617884  0.41292027     0.06000
C1065       C  0.89604052  0.22445371  0.35215627    -0.31000
O1066       O  0.89433519  0.30848587  0.63571604    -0.22900
C1067       C  0.89613216  0.32573251  0.34305610    -0.02900
C1068       C  0.89718546  0.31745760  0.40387450    -0.17300
H1069       H  0.89874152  0.27963097  0.49213707     0.20700
H1070       H  0.89465577  0.26218270  0.59846959     0.19100
H1071       H  0.89522860  0.21437829  0.30979408     0.19000
H1072       H  0.89821308  0.32753670  0.44619712     0.14900
C1073       C  0.65141693  0.04369545  0.44980823     0.30300
C1074       C  0.65499624  0.02195247  0.47882286    -0.36000
C1075       C  0.65260342  0.00220250  0.44116338     0.16300
C1076       C  0.64706317  0.00355427  0.37896447     0.22100
C1077       C  0.64366643  0.02547445  0.34961546    -0.34100
C1078       C  0.64612651  0.04539259  0.38748547     0.16200
O1079       O  0.65206919  0.06423843  0.47725753    -0.26200
C1080       C  0.64730216  0.07950583  0.43218501     0.06000
C1081       C  0.64354052  0.06886274  0.37500163    -0.31000
O1082       O  0.64508326  0.98254455  0.35342619    -0.22900
C1083       C  0.64947627  0.96774302  0.40015904    -0.02900
C1084       C  0.65429418  0.97905575  0.45560004    -0.17300
H1085       H  0.65907651  0.02051598  0.52769297     0.20700
H1086       H  0.63907875  0.02689549  0.30108960     0.19100
H1087       H  0.63906812  0.07713407  0.33126794     0.19000
H1088       H  0.65812939  0.97128949  0.50041065     0.14900
C1089       C  0.74865569  0.14650214  0.43859716     0.30300
C1090       C  0.76826405  0.14401930  0.39972395    -0.36000
C1091       C  0.79025126  0.14581161  0.42842035     0.16300
C1092       C  0.79269705  0.14981461  0.49112315     0.22100
C1093       C  0.77307989  0.15209955  0.53010732    -0.34100
C1094       C  0.75109151  0.15013424  0.50146764     0.16200
O1095       O  0.72652221  0.14575595  0.42124954    -0.26200
C1096       C  0.71458726  0.14868030  0.47371467     0.06000
C1097       C  0.72892035  0.15137884  0.52533184    -0.31000
O1098       O  0.81484471  0.15100997  0.50823320    -0.22900
C1099       C  0.82678147  0.14766705  0.45592670    -0.02900
C1100       C  0.81241336  0.14431043  0.40462866    -0.17300
H1101       H  0.76644718  0.14083616  0.35063150     0.20700
H1102       H  0.77487797  0.15527732  0.57923633     0.19100
H1103       H  0.72376113  0.15417520  0.57304756     0.19000
H1104       H  0.81754219  0.14127101  0.35699838     0.14900
C1105       C  0.64263396  0.49481120  0.38754593     0.30300
C1106       C  0.64202342  0.51296785  0.43179183    -0.36000
C1107       C  0.64350587  0.53609228  0.40806617     0.16300
C1108       C  0.64551871  0.54073110  0.34534370     0.22100
C1109       C  0.64593556  0.52278208  0.30157602    -0.34100
C1110       C  0.64438807  0.49993200  0.32506332     0.16200
O1111       O  0.64183325  0.47186478  0.39841096    -0.26200
C1112       C  0.64478089  0.46268400  0.67743740     0.06000
C1113       C  0.64752590  0.47919061  0.63028308    -0.31000
O1114       O  0.64700749  0.56325311  0.33259663    -0.22900
C1115       C  0.64585544  0.57353858  0.38753087    -0.02900
C1116       C  0.64358791  0.55757101  0.43663148    -0.17300
H1117       H  0.64059596  0.50932715  0.48096561     0.20700
H1118       H  0.65160539  0.52631140  0.58713871     0.19100
H1119       H  0.64943378  0.47620680  0.58098956     0.19000
H1120       H  0.64234708  0.56122669  0.48571962     0.14900
C1121       C  0.79096388  0.39393010  0.60281703     0.30300
C1122       C  0.77086378  0.39248468  0.56546147    -0.36000
C1123       C  0.74926465  0.39386416  0.59652332     0.16300
C1124       C  0.74769431  0.39616896  0.66005678     0.22100
C1125       C  0.76771616  0.39795804  0.36312499    -0.34100
C1126       C  0.78928182  0.39660616  0.66621158     0.16200
O1127       O  0.81290035  0.39294747  0.58364555    -0.26200
C1128       C  0.82536845  0.39511369  0.63543199     0.06000
C1129       C  0.81165814  0.39710865  0.35465511    -0.31000
O1130       O  0.72587704  0.39652047  0.67990651    -0.22900
C1131       C  0.71322239  0.39467499  0.62848821    -0.02900
C1132       C  0.72676985  0.39306397  0.57492977    -0.17300
H1133       H  0.77202919  0.39025772  0.51586820     0.20700
H1134       H  0.76649278  0.40047049  0.41261251     0.19100
H1135       H  0.81726943  0.39942897  0.40216274     0.19000
H1136       H  0.72091374  0.39120088  0.52748642     0.14900
C1137       C  0.64231014  0.28857395  0.60020431     0.30300
C1138       C  0.64287151  0.26516525  0.62110996    -0.36000
C1139       C  0.64235888  0.24789337  0.57493049     0.16300
C1140       C  0.64142709  0.25317897  0.51239673     0.22100
C1141       C  0.64073551  0.27657152  0.49149712    -0.34100
C1142       C  0.64120179  0.29383874  0.53767382     0.16200
O1143       O  0.64288972  0.30757598  0.63513925    -0.26200
C1144       C  0.64208646  0.32520508  0.59430800     0.06000
C1145       C  0.64098447  0.31766750  0.53310450    -0.31000
O1146       O  0.64146295  0.23421309  0.47734040    -0.22900
C1147       C  0.64234442  0.21656049  0.51806256    -0.02900
C1148       C  0.64288633  0.22405298  0.57938278    -0.17300
H1149       H  0.64377404  0.26068663  0.66987118     0.20700
H1150       H  0.64001133  0.28101973  0.44266418     0.19100
H1151       H  0.64028285  0.32826343  0.49126213     0.19000
H1152       H  0.64375274  0.21343351  0.62116053     0.14900
C1153       C  0.04634804  0.14663200  0.46720566     0.30300
C1154       C  0.02829981  0.14561091  0.42264704    -0.36000
C1155       C  0.00516432  0.14639671  0.44581825     0.16300
C1156       C  0.00035860  0.14823066  0.50836796     0.22100
C1157       C  0.01824824  0.14922650  0.55254321    -0.34100
C1158       C  0.04117653  0.14828432  0.52957147     0.16200
O1159       O  0.06924751  0.14591013  0.45666514    -0.26200
C1160       C  0.07864232  0.14702881  0.51318704     0.06000
C1161       C  0.06196568  0.14852959  0.56008170    -0.31000
O1162       O  0.97776300  0.14876438  0.52045590    -0.22900
C1163       C  0.96766935  0.14714771  0.46519564    -0.02900
C1164       C  0.98381234  0.14558852  0.41666133    -0.17300
H1165       H  0.03203860  0.14415423  0.37363076     0.20700
H1166       H  0.01448173  0.15056806  0.60156754     0.19100
H1167       H  0.06478737  0.14956689  0.60962971     0.19000
H1168       H  0.98033814  0.14419662  0.36749352     0.14900
C1169       C  0.49544117  0.14369759  0.45811339     0.30300
C1170       C  0.51345625  0.14183894  0.50246795    -0.36000
C1171       C  0.53654425  0.14365556  0.47953330     0.16300
C1172       C  0.54136578  0.14714541  0.41736233     0.22100
C1173       C  0.52348754  0.14883371  0.37325033    -0.34100
C1174       C  0.50058210  0.14694212  0.39605121     0.16200
O1175       O  0.47257958  0.14257361  0.46866176    -0.26200
C1176       C  0.46317209  0.14503699  0.41246709     0.06000
C1177       C  0.47978397  0.14777920  0.36571359    -0.31000
O1178       O  0.56395325  0.14869981  0.40571742    -0.22900
C1179       C  0.57396371  0.14609283  0.46089049    -0.02900
C1180       C  0.55782226  0.14280355  0.50884915    -0.17300
H1181       H  0.50972707  0.13917675  0.55122162     0.20700
H1182       H  0.52720983  0.15150389  0.32446042     0.19100
H1183       H  0.47691400  0.15006965  0.31642016     0.19000
H1184       H  0.56124935  0.14040061  0.55783085     0.14900
C1185       C  0.28890577  0.14307471  0.34043300     0.30300
C1186       C  0.26563256  0.14325736  0.36197406    -0.36000
C1187       C  0.24848014  0.14484987  0.64796524     0.16300
C1188       C  0.25309903  0.14437638  0.58511420     0.22100
C1189       C  0.27626193  0.14354587  0.56280467    -0.34100
C1190       C  0.29400358  0.14326108  0.60792599     0.16200
O1191       O  0.30808535  0.14306942  0.37488492    -0.26200
C1192       C  0.32545968  0.14295925  0.33349501     0.06000
C1193       C  0.31777884  0.14266034  0.60198068    -0.31000
O1194       O  0.23376440  0.14463843  0.55127170    -0.22900
C1195       C  0.21654757  0.14522089  0.59310485    -0.02900
C1196       C  0.22470312  0.14541010  0.65392526    -0.17300
H1197       H  0.26141461  0.14330494  0.41089814     0.20700
H1198       H  0.28022313  0.14314489  0.51375164     0.19100
H1199       H  0.32794496  0.14225563  0.55952401     0.19000
H1200       H  0.21394705  0.14381765  0.36337470     0.14900
C1201       C  0.04433787  0.39820922  0.62318616     0.30300
C1202       C  0.02600597  0.39869657  0.66696101    -0.36000
C1203       C  0.00315321  0.39671325  0.64299137     0.16300
C1204       C  0.99880866  0.39428861  0.58038401     0.22100
C1205       C  0.01702661  0.39389364  0.53683745    -0.34100
C1206       C  0.03973744  0.39601101  0.56065742     0.16200
O1207       O  0.06705987  0.39963192  0.63487542    -0.26200
C1208       C  0.07697316  0.39842077  0.57899102     0.06000
C1209       C  0.06080919  0.39620850  0.53119845    -0.31000
O1210       O  0.97630797  0.39270334  0.56774648    -0.22900
C1211       C  0.96592623  0.39423016  0.62276393    -0.02900
C1212       C  0.98170587  0.39677244  0.67155286    -0.17300
H1213       H  0.02925476  0.40322487  0.38550238     0.20700
H1214       H  0.01367340  0.39204077  0.48775618     0.19100
H1215       H  0.06414359  0.39473473  0.48192853     0.19000
H1216       H  0.97773527  0.40158015  0.38852648     0.14900
C1217       C  0.14865900  0.29381046  0.52247626     0.30300
C1218       C  0.15163462  0.27346366  0.48724706    -0.36000
C1219       C  0.14993921  0.25214258  0.51975277     0.16300
C1220       C  0.14563464  0.25083036  0.58270852     0.22100
C1221       C  0.14284692  0.27121566  0.61810802    -0.34100
C1222       C  0.14465274  0.29257641  0.58558856     0.16200
O1223       O  0.14941486  0.31559208  0.50139159    -0.26200
C1224       C  0.14606915  0.32846726  0.55179255     0.06000
C1225       C  0.14307309  0.31512800  0.60555203    -0.31000
O1226       O  0.14447056  0.22896425  0.60330932    -0.22900
C1227       C  0.14812789  0.21620439  0.55276582    -0.02900
C1228       C  0.15166204  0.22968658  0.49953432    -0.17300
H1229       H  0.15513251  0.27422240  0.43803459     0.20700
H1230       H  0.13933540  0.27046271  0.66734206     0.19100
H1231       H  0.14011547  0.32120028  0.65238699     0.19000
H1232       H  0.15483120  0.22376033  0.45265873     0.14900
C1233       C  0.49733296  0.39236334  0.37231395     0.30300
C1234       C  0.51908687  0.38797564  0.73678434    -0.36000
C1235       C  0.53873153  0.39010332  0.69823671     0.16300
C1236       C  0.53724798  0.39562840  0.63592717     0.22100
C1237       C  0.51515240  0.39989960  0.27094313    -0.34100
C1238       C  0.49543341  0.39760050  0.30989550     0.16200
O1239       O  0.47689036  0.39135944  0.40049782    -0.26200
C1240       C  0.46152792  0.39583504  0.35578396     0.06000
C1241       C  0.47196923  0.39981814  0.29816364    -0.31000
O1242       O  0.55811942  0.39736729  0.60940193    -0.22900
C1243       C  0.57297928  0.39284418  0.65554256    -0.02900
C1244       C  0.56187622  0.38812521  0.71166749    -0.17300
H1245       H  0.52058857  0.38383229  0.78566273     0.20700
H1246       H  0.51356860  0.40422370  0.22219689     0.19100
H1247       H  0.46354555  0.40393145  0.25448305     0.19000
H1248       H  0.56976793  0.38418950  0.75616896     0.14900
C1249       C  0.39344899  0.29251318  0.35664247     0.30300
C1250       C  0.39444364  0.27311164  0.31689535    -0.36000
C1251       C  0.39420295  0.25093698  0.34564483     0.16300
C1252       C  0.39283999  0.24817925  0.40916088     0.22100
C1253       C  0.39192748  0.26754810  0.44883707    -0.34100
C1254       C  0.39245185  0.28969027  0.42018826     0.16200
O1255       O  0.39344821  0.31477839  0.33966364    -0.26200
C1256       C  0.39266768  0.32635497  0.39302437     0.06000
C1257       C  0.39207132  0.31168180  0.44480008    -0.31000
O1258       O  0.39253727  0.22597735  0.42638344    -0.22900
C1259       C  0.39384945  0.21427238  0.37334444    -0.02900
C1260       C  0.39498343  0.22885153  0.32135976    -0.17300
H1261       H  0.39537104  0.27523224  0.26715895     0.20700
H1262       H  0.39081038  0.26540281  0.49850316     0.19100
H1263       H  0.39131131  0.31651519  0.49323099     0.19000
H1264       H  0.39603021  0.22391007  0.27304923     0.14900
C1265       C  0.24659501  0.39893788  0.46271543     0.30300
C1266       C  0.26291996  0.39987481  0.41408001    -0.36000
C1267       C  0.28656301  0.39893626  0.43131715     0.16300
C1268       C  0.29372488  0.39725023  0.49229247     0.22100
C1269       C  0.27734949  0.39632047  0.54109695    -0.34100
C1270       C  0.25362288  0.39723437  0.52380772     0.16200
O1271       O  0.22362359  0.39953328  0.45681896    -0.26200
C1272       C  0.21573516  0.39824169  0.51480138     0.06000
C1273       C  0.23357521  0.39673525  0.55861211    -0.31000
O1274       O  0.31678149  0.39650043  0.49752215    -0.22900
C1275       C  0.32436907  0.39763986  0.43911663    -0.02900
C1276       C  0.30636759  0.39923101  0.39601658    -0.17300
H1277       H  0.25756777  0.40121466  0.36611032     0.20700
H1278       H  0.28269119  0.39489279  0.58903551     0.19100
H1279       H  0.23194016  0.39544743  0.60849444     0.19000
H1280       H  0.30774752  0.40039933  0.34605884     0.14900
C1281       C  0.14700044  0.99938313  0.49261132     0.30300
C1282       C  0.15023017  0.02105948  0.46289935    -0.36000
C1283       C  0.14835802  0.04087208  0.50044691     0.16300
C1284       C  0.14351715  0.03966641  0.56312700     0.22100
C1285       C  0.14027052  0.01781555  0.59305311    -0.34100
C1286       C  0.14234411  0.99781792  0.55536111     0.16200
O1287       O  0.14798473  0.97874545  0.46579593    -0.26200
C1288       C  0.14408124  0.96355098  0.51171442     0.02800
C1289       C  0.14047305  0.97434107  0.56877379    -0.31000
O1290       O  0.14247037  0.06072065  0.58875524    -0.22900
C1291       C  0.14677589  0.07537195  0.54154796    -0.02900
C1292       C  0.15054605  0.06393960  0.48573896    -0.17300
H1293       H  0.15402388  0.02238711  0.41381312     0.20700
H1294       H  0.13633433  0.01648305  0.64201324     0.19100
H1295       H  0.13686557  0.96613003  0.61321142     0.19000
H1296       H  0.15426273  0.07158177  0.44064372     0.14900
C1297       C  0.04038290  0.89242961  0.52440426     0.30300
C1298       C  0.02234587  0.89030443  0.56811721    -0.36000
C1299       C  0.99959569  0.89340798  0.54560110     0.16300
C1300       C  0.99471849  0.89803198  0.48404166     0.22100
C1301       C  0.01290398  0.90018225  0.43996940    -0.34100
C1302       C  0.03587137  0.89728255  0.46274672     0.16200
O1303       O  0.06289141  0.89063051  0.53632907    -0.26200
C1304       C  0.07320677  0.89442806  0.48190442     0.06000
C1305       C  0.05731456  0.89868137  0.43404742    -0.31000
O1306       O  0.97194077  0.90024864  0.47380036    -0.22900
C1307       C  0.96236405  0.89717165  0.52973495    -0.02900
C1308       C  0.97875157  0.89288817  0.57597250    -0.17300
H1309       H  0.02585884  0.88670095  0.61656653     0.20700
H1310       H  0.00941129  0.90403069  0.39164973     0.19100
H1311       H  0.06101090  0.90241995  0.38572132     0.19000
H1312       H  0.97570358  0.88974293  0.62491341     0.14900
C1313       C  0.14765981  0.50225376  0.59372818     0.30300
C1314       C  0.14868189  0.52040988  0.63677339    -0.36000
C1315       C  0.14698267  0.54312496  0.61258834     0.16300
C1316       C  0.14457547  0.54795946  0.55012174     0.22100
C1317       C  0.14348956  0.52959771  0.50658648    -0.34100
C1318       C  0.14507423  0.50660488  0.53103000     0.16200
O1319       O  0.14872955  0.47977606  0.60722694    -0.26200
C1320       C  0.14674537  0.46926238  0.55278591     0.06000
C1321       C  0.14439162  0.48500842  0.50330449    -0.31000
O1322       O  0.14328952  0.57084086  0.53867766    -0.22900
C1323       C  0.14479265  0.58044113  0.59483401    -0.02900
C1324       C  0.14710242  0.56397783  0.64216509    -0.17300
H1325       H  0.15056538  0.51701437  0.68595552     0.20700
H1326       H  0.14141860  0.53298205  0.45747509     0.19100
H1327       H  0.14242302  0.48112379  0.45452062     0.19000
H1328       H  0.14863852  0.56697981  0.69153031     0.14900
C1329       C  0.03778257  0.64680161  0.64523606     0.30300
C1330       C  0.01596278  0.64308995  0.67453310    -0.36000
C1331       C  0.99603686  0.64540922  0.63653156     0.16300
C1332       C  0.99763139  0.65086108  0.57416087     0.22100
C1333       C  0.01927692  0.65477152  0.54521133    -0.34100
C1334       C  0.03903602  0.65252803  0.58300588     0.16200
O1335       O  0.05818434  0.64484895  0.34016342    -0.26200
C1336       C  0.07346631  0.64984166  0.62428728     0.06000
C1337       C  0.06210642  0.65465125  0.56873737    -0.31000
O1338       O  0.97707000  0.65156746  0.54675268    -0.22900
C1339       C  0.96192176  0.64666995  0.59192025    -0.02900
C1340       C  0.97263183  0.64275738  0.64909068    -0.17300
H1341       H  0.01410298  0.63835064  0.39325906     0.20700
H1342       H  0.02063166  0.65907112  0.49637160     0.19100
H1343       H  0.06979568  0.65878033  0.52399506     0.19000
H1344       H  0.96442550  0.63831340  0.69295643     0.14900
C1345       C  0.14330346  0.75425825  0.34681522     0.30300
C1346       C  0.14409938  0.77771406  0.32657029    -0.36000
C1347       C  0.14357783  0.79479426  0.37316398     0.16300
C1348       C  0.14238686  0.78933001  0.43557888     0.22100
C1349       C  0.14150005  0.76582999  0.45586600    -0.34100
C1350       C  0.14201357  0.74871818  0.40918161     0.16200
O1351       O  0.14375414  0.73545711  0.31120184    -0.26200
C1352       C  0.14272209  0.71762088  0.35131109     0.06000
C1353       C  0.14159180  0.72484068  0.41285917    -0.31000
O1354       O  0.14225561  0.80824358  0.47096272    -0.22900
C1355       C  0.14333095  0.82598851  0.43044792    -0.02900
C1356       C  0.14415260  0.81860985  0.36909209    -0.17300
H1357       H  0.14512124  0.78235090  0.27788029     0.20700
H1358       H  0.14053942  0.76117915  0.50454473     0.19100
H1359       H  0.14068607  0.71402094  0.45429530     0.19000
H1360       H  0.14509508  0.82930758  0.32744211     0.14900
C1361       C  0.39367825  0.04093573  0.43228077     0.30300
C1362       C  0.39221241  0.02310773  0.47701624    -0.36000
C1363       C  0.39430842  0.00017295  0.45506114     0.16300
C1364       C  0.39743701  0.99493509  0.39318205     0.22100
C1365       C  0.39892400  0.01291176  0.34811259    -0.34100
C1366       C  0.39700318  0.03604729  0.37024735     0.16200
O1367       O  0.39235567  0.06355031  0.44330388    -0.26200
C1368       C  0.39493051  0.07352588  0.38786429     0.06000
C1369       C  0.39793170  0.05732828  0.34031730    -0.31000
O1370       O  0.39894052  0.97204153  0.38359316    -0.22900
C1371       C  0.39687472  0.96273271  0.44023979    -0.02900
C1372       C  0.39396843  0.97943574  0.48627820    -0.17300
H1373       H  0.38973646  0.02689622  0.52571148     0.20700
H1374       H  0.40153238  0.00913662  0.29947896     0.19100
H1375       H  0.40039629  0.06072602  0.29128767     0.19000
H1376       H  0.39184398  0.97665865  0.53569936     0.14900
C1377       C  0.50005317  0.89336233  0.42829757     0.30300
C1378       C  0.51807522  0.89322069  0.38422973    -0.36000
C1379       C  0.54086401  0.89512502  0.40748832     0.16300
C1380       C  0.54576298  0.89685145  0.46996566     0.22100
C1381       C  0.52761010  0.89707887  0.51430996    -0.34100
C1382       C  0.50463668  0.89535431  0.49090188     0.16200
O1383       O  0.47751419  0.89205770  0.41611941    -0.26200
C1384       C  0.46730296  0.89337015  0.47139628     0.06000
C1385       C  0.48326094  0.89544683  0.51996357    -0.31000
O1386       O  0.56855432  0.89818037  0.48093189    -0.22900
C1387       C  0.57815312  0.89741438  0.42459128    -0.02900
C1388       C  0.56174944  0.89556633  0.37731488    -0.17300
H1389       H  0.51452273  0.89179990  0.33512072     0.20700
H1390       H  0.53116058  0.89860588  0.56337434     0.19100
H1391       H  0.47964394  0.89692090  0.56907526     0.19000
H1392       H  0.56537057  0.89415969  0.66225340     0.14900
C1393       C  0.29158792  0.89775204  0.50906553     0.30300
C1394       C  0.27086629  0.89987623  0.54382580    -0.36000
C1395       C  0.24977322  0.89786445  0.51068643     0.16300
C1396       C  0.24904727  0.89446336  0.44740578     0.22100
C1397       C  0.26975013  0.89232575  0.41265833    -0.34100
C1398       C  0.29081721  0.89405890  0.44591493     0.16200
O1399       O  0.31327801  0.89860412  0.53066108    -0.26200
C1400       C  0.32650979  0.89533410  0.48053541     0.06000
C1401       C  0.31346274  0.89245625  0.42660858    -0.31000
O1402       O  0.22739460  0.89323343  0.42582969    -0.22900
C1403       C  0.21409168  0.89561483  0.47614916    -0.02900
C1404       C  0.22706359  0.89849055  0.53023655    -0.17300
H1405       H  0.27116454  0.90290191  0.59315495     0.20700
H1406       H  0.26945231  0.88921441  0.36330336     0.19100
H1407       H  0.31979102  0.88950366  0.37993473     0.19000
H1408       H  0.22064583  0.90076267  0.57710212     0.14900
C1409       C  0.39492630  0.54556926  0.39374089     0.30300
C1410       C  0.39702958  0.52699490  0.43681568    -0.36000
C1411       C  0.39456236  0.50420839  0.41263113     0.16300
C1412       C  0.39012084  0.50022164  0.35062751     0.22100
C1413       C  0.38831871  0.51842057  0.64015914    -0.34100
C1414       C  0.39068222  0.54102155  0.66415303     0.16200
O1415       O  0.39718695  0.56828685  0.40502768    -0.26200
C1416       C  0.39424611  0.57816778  0.68195188     0.06000
C1417       C  0.39074357  0.56209285  0.63469137    -0.31000
O1418       O  0.38890696  0.47781654  0.33721362    -0.22900
C1419       C  0.39268487  0.46706019  0.39100523    -0.02900
C1420       C  0.39629149  0.48251613  0.43996823    -0.17300
H1421       H  0.40071011  0.53007419  0.48529816     0.20700
H1422       H  0.38575025  0.51528259  0.59118521     0.19100
H1423       H  0.38869074  0.56547379  0.58552416     0.19000
H1424       H  0.39985263  0.47838572  0.48810083     0.14900
C1425       C  0.50260884  0.64504911  0.63597377     0.30300
C1426       C  0.52441488  0.64154791  0.60664870    -0.36000
C1427       C  0.54431733  0.64391610  0.31125081     0.16300
C1428       C  0.54269910  0.64794593  0.37418284     0.22100
C1429       C  0.52099197  0.65081167  0.40353610    -0.34100
C1430       C  0.50122858  0.64915057  0.36548473     0.16200
O1431       O  0.48158451  0.64329593  0.61036220    -0.26200
C1432       C  0.46691531  0.64785119  0.65697307     0.06000
C1433       C  0.47812864  0.65089623  0.37979412    -0.31000
O1434       O  0.56330225  0.64861020  0.40152144    -0.22900
C1435       C  0.57849752  0.64510945  0.35572558    -0.02900
C1436       C  0.56775662  0.64212678  0.29828411    -0.17300
H1437       H  0.52572178  0.63701082  0.55813725     0.20700
H1438       H  0.51959731  0.65409208  0.45276538     0.19100
H1439       H  0.47040918  0.65405316  0.42489334     0.19000
H1440       H  0.57591912  0.63719655  0.58788038     0.14900
C1441       C  0.24863073  0.64550111  0.66936266     0.30300
C1442       C  0.26846194  0.64299844  0.37222225    -0.36000
C1443       C  0.29029984  0.64445443  0.67341194     0.16300
C1444       C  0.29173067  0.64754409  0.60994643     0.22100
C1445       C  0.27145997  0.64999095  0.57383348    -0.34100
C1446       C  0.25007231  0.64889710  0.60600660     0.16200
O1447       O  0.22632085  0.64515016  0.35636233    -0.26200
C1448       C  0.21410532  0.64824628  0.63864073     0.06000
C1449       C  0.22766811  0.65079093  0.58528677    -0.31000
O1450       O  0.31359990  0.64842309  0.58970901    -0.22900
C1451       C  0.32626911  0.64612026  0.64109155    -0.02900
C1452       C  0.31272622  0.64359133  0.69446000    -0.17300
H1453       H  0.26755487  0.64006181  0.42171773     0.20700
H1454       H  0.27232315  0.65288610  0.52431636     0.19100
H1455       H  0.22182095  0.65351863  0.53804714     0.19000
H1456       H  0.31817797  0.64105106  0.40886241     0.14900
C1457       C  0.39651894  0.75278495  0.60876727     0.30300
C1458       C  0.39685600  0.77609519  0.62970305    -0.36000
C1459       C  0.39633498  0.79359704  0.58350580     0.16300
C1460       C  0.39548942  0.78861776  0.52096187     0.22100
C1461       C  0.39515518  0.76533586  0.50004735    -0.34100
C1462       C  0.39575191  0.74785270  0.54619125     0.16200
O1463       O  0.39695644  0.73358427  0.64365590    -0.26200
C1464       C  0.39654016  0.71619049  0.60266549     0.06000
C1465       C  0.39580211  0.72407160  0.54148501    -0.31000
O1466       O  0.39528143  0.80774992  0.48589974    -0.22900
C1467       C  0.39602657  0.82520253  0.52661707    -0.02900
C1468       C  0.39668517  0.81741764  0.58793910    -0.17300
H1469       H  0.39755422  0.78033955  0.67847985     0.20700
H1470       H  0.39457665  0.76111055  0.45122976     0.19100
H1471       H  0.39531744  0.71371776  0.49955894     0.19000
H1472       H  0.39743190  0.82784322  0.62971246     0.14900
O1473       O  0.39609064  0.68423061  0.00562109    -0.71200
O1474       O  0.39574047  0.61841137  0.71369410    -0.71500
O1475       O  0.42905849  0.65163302  0.02877053    -0.71300
O1476       O  0.36286703  0.65090946  0.02255488    -0.71300
O1477       O  0.36401972  0.64419784  0.92346859    -0.71300
O1478       O  0.43098843  0.64273288  0.93103264    -0.71300
O1479       O  0.39631081  0.61102804  0.94555976    -0.71200
O1480       O  0.39856322  0.67581466  0.90766799    -0.71400
V1481       V  0.39602090  0.65123078  0.02337932     1.35200
V1482       V  0.39746081  0.64359805  0.92885283     1.35200
C1483       C  0.39746805  0.69108082  0.94968970     0.78000
C1484       C  0.39575083  0.60366272  0.00086909     0.78100
C1485       C  0.44132184  0.64700554  0.98164622     0.77900
C1486       C  0.35213964  0.64737295  0.97235389     0.77900
O1487       O  0.39629598  0.85689203  0.78387921    -0.71200
O1488       O  0.39770310  0.92242877  0.74391583    -0.71500
O1489       O  0.43003799  0.88903352  0.76191545    -0.71300
O1490       O  0.36382583  0.89040871  0.76432307    -0.71300
O1491       O  0.36404235  0.89822970  0.86282855    -0.71300
O1492       O  0.43119797  0.89769845  0.85989505    -0.71300
O1493       O  0.39781663  0.93038247  0.84235439    -0.71200
O1494       O  0.39736945  0.86559060  0.88181624    -0.71400
V1495       V  0.39697186  0.88981269  0.76546703     1.35200
V1496       V  0.39759988  0.89779637  0.85984292     1.35200
C1497       C  0.39669428  0.85019793  0.84001283     0.78000
C1498       C  0.39788717  0.93750875  0.78680513     0.78100
C1499       C  0.44192369  0.89340882  0.80972906     0.77900
C1500       C  0.35259900  0.89462372  0.81346806     0.77900
O1501       O  0.14427849  0.68660821  0.94237877    -0.71200
O1502       O  0.14446001  0.62126205  0.90043427    -0.71500
O1503       O  0.11130651  0.65402816  0.91807491    -0.71300
O1504       O  0.17749341  0.65392078  0.92284827    -0.71300
O1505       O  0.17647517  0.64466069  0.68690431    -0.71300
O1506       O  0.10944564  0.64456587  0.67994116    -0.71300
O1507       O  0.14337443  0.61248206  0.66315909    -0.71200
O1508       O  0.14266276  0.67668170  0.70529662    -0.71400
V1509       V  0.14435025  0.65381297  0.92283234     1.35200
V1510       V  0.14300799  0.64477324  0.68189676     1.35200
C1511       C  0.14371476  0.69251256  0.66419785     0.78000
C1512       C  0.14420212  0.60590017  0.94324493     0.78100
C1513       C  0.09913359  0.64928054  0.96547612     0.77900
C1514       C  0.18842353  0.64935058  0.97223730     0.77900
O1515       O  0.14418529  0.85730908  0.83332263    -0.71200
O1516       O  0.14386666  0.92288081  0.87185278    -0.71500
O1517       O  0.11100641  0.88980570  0.85434141    -0.71300
O1518       O  0.17725878  0.89058656  0.85274762    -0.71300
O1519       O  0.17727757  0.89814451  0.75382477    -0.71300
O1520       O  0.10999317  0.89886369  0.75631623    -0.71300
O1521       O  0.14428437  0.93089747  0.77315641    -0.71200
O1522       O  0.14315551  0.86625508  0.73524162    -0.71400
V1523       V  0.14407635  0.89025187  0.85110200     1.35200
V1524       V  0.14368091  0.89836752  0.75652794     1.35200
C1525       C  0.14355480  0.85075273  0.77728270     0.78000
C1526       C  0.14419696  0.93798244  0.82843427     0.78100
C1527       C  0.09916561  0.89446342  0.80651606     0.77900
C1528       C  0.18861151  0.89464323  0.80354534     0.77900
O1529       O  0.35605689  0.39583952  0.69936084    -0.71200
O1530       O  0.42137208  0.39716333  0.66093534    -0.71500
O1531       O  0.38945578  0.36326454  0.67975994    -0.71300
O1532       O  0.38807614  0.42956815  0.67941790    -0.71300
O1533       O  0.39665232  0.43009837  0.77759808    -0.71300
O1534       O  0.39682344  0.36297731  0.77865194    -0.71300
O1535       O  0.42921406  0.39649169  0.75956645    -0.71200
O1536       O  0.36433971  0.39636922  0.79771691    -0.71400
V1537       V  0.38885238  0.39645470  0.68184931     1.35200
V1538       V  0.39661034  0.39650163  0.77650279     1.35200
C1539       C  0.34916559  0.39612161  0.75521055     0.78000
C1540       C  0.43635946  0.39671167  0.70412596     0.78100
C1541       C  0.39352616  0.35181425  0.72880797     0.77900
C1542       C  0.39219840  0.44114781  0.72785340     0.77900
O1543       O  0.18281588  0.39832556  0.91693884    -0.71200
O1544       O  0.11693549  0.39898011  0.94877040    -0.71500
O1545       O  0.14935374  0.36543985  0.93325770    -0.71300
O1546       O  0.15025060  0.43183635  0.93346287    -0.71300
O1547       O  0.14235330  0.43272641  0.83488567    -0.71300
O1548       O  0.14413756  0.36565795  0.83341869    -0.71300
O1549       O  0.11052308  0.39811388  0.84947061    -0.71200
O1550       O  0.17580245  0.40014560  0.81796148    -0.71400
V1551       V  0.14974201  0.39867678  0.93116379     1.35200
V1552       V  0.14331345  0.39915076  0.83584179     1.35200
C1553       C  0.19041898  0.39923261  0.86175334     0.78000
C1554       C  0.10257350  0.39839177  0.90416002     0.78100
C1555       C  0.14684527  0.35422145  0.88343348     0.77900
C1556       C  0.14613908  0.44360351  0.88490844     0.77900
O1557       O  0.35782137  0.14413342  0.73500805    -0.71200
O1558       O  0.42334935  0.14455563  0.77310548    -0.71500
O1559       O  0.39083564  0.17746197  0.75146846    -0.71300
O1560       O  0.39056929  0.11129467  0.75832692    -0.71300
O1561       O  0.39927796  0.10950051  0.66028338    -0.71300
O1562       O  0.39704275  0.17666787  0.98695344    -0.71300
O1563       O  0.43117643  0.14397266  0.67444071    -0.71200
O1564       O  0.36616044  0.14145159  0.97110545    -0.71400
V1565       V  0.39074392  0.14433428  0.75248004     1.35200
V1566       V  0.39833709  0.14309368  0.99171160     1.35200
C1567       C  0.35103344  0.14311226  0.67916230     0.78000
C1568       C  0.43835979  0.14448407  0.72975078     0.78100
C1569       C  0.39484755  0.18841420  0.70158217     0.77900
C1570       C  0.39523454  0.09909807  0.71135704     0.77900
O1571       O  0.18546843  0.14559646  0.84981974    -0.71200
O1572       O  0.12000521  0.14706773  0.80975885    -0.71500
O1573       O  0.15331571  0.17951967  0.83195297    -0.71300
O1574       O  0.15229049  0.11322488  0.82617688    -0.71300
O1575       O  0.14316410  0.11137786  0.92398948    -0.71300
O1576       O  0.14532008  0.17844801  0.93053051    -0.71300
O1577       O  0.11192436  0.14629104  0.90826394    -0.71200
O1578       O  0.17643954  0.14369519  0.94769172    -0.71400
V1579       V  0.15262427  0.14631918  0.83132908     1.35200
V1580       V  0.14436843  0.14496642  0.92567800     1.35200
C1581       C  0.19196528  0.14435138  0.90592402     0.78000
C1582       C  0.10485626  0.14711539  0.85286088     0.78100
C1583       C  0.14956162  0.19031316  0.88189127     0.77900
C1584       C  0.14748891  0.10097246  0.87353493     0.77900
O1585       O  0.64533521  0.35675640  0.99600381    -0.71200
O1586       O  0.64409489  0.42202448  0.03759021    -0.71500
O1587       O  0.61172428  0.38808858  0.02349022    -0.71300
O1588       O  0.67775742  0.39077945  0.01166787    -0.71300
O1589       O  0.67543728  0.39817673  0.91282472    -0.71300
O1590       O  0.60857772  0.39838163  0.92661749    -0.71300
O1591       O  0.64288023  0.43054218  0.93926304    -0.71200
O1592       O  0.64126420  0.36610886  0.89874389    -0.71400
V1593       V  0.64467259  0.38953009  0.01527672     1.35200
V1594       V  0.64206016  0.39813466  0.92126224     1.35200
C1595       C  0.64332527  0.35044031  0.94000319     0.78000
C1596       C  0.64371822  0.43736122  0.99479624     0.78100
C1597       C  0.59887704  0.39313125  0.97775903     0.77900
C1598       C  0.68787310  0.39484609  0.96066904     0.77900
O1599       O  0.64500806  0.18533194  0.77396570    -0.71200
O1600       O  0.64541279  0.11990196  0.73472537    -0.71500
O1601       O  0.61217323  0.15247292  0.75073547    -0.71300
O1602       O  0.67839737  0.15248637  0.75637261    -0.71300
O1603       O  0.67742743  0.14518700  0.85543190    -0.71300
O1604       O  0.61040108  0.14291986  0.84841752    -0.71300
O1605       O  0.64529007  0.11170914  0.83334128    -0.71200
O1606       O  0.64269844  0.17629059  0.87187078    -0.71400
V1607       V  0.64521946  0.15244700  0.75589565     1.35200
V1608       V  0.64395787  0.14419536  0.85036651     1.35200
C1609       C  0.64369416  0.19183284  0.82995752     0.78000
C1610       C  0.64568018  0.10474103  0.77794717     0.78100
C1611       C  0.60000143  0.14730851  0.79780123     0.77900
C1612       C  0.68922546  0.14883030  0.80643139     0.77900
O1613       O  0.89471509  0.35749363  0.93602470    -0.71200
O1614       O  0.89606412  0.42323401  0.89964430    -0.71500
O1615       O  0.92850873  0.38974937  0.91527804    -0.71300
O1616       O  0.86221447  0.39112341  0.91946935    -0.71300
O1617       O  0.86283168  0.39848649  0.68385165    -0.71300
O1618       O  0.92974977  0.39826557  0.67842654    -0.71300
O1619       O  0.89614539  0.43075416  0.66128372    -0.71200
O1620       O  0.89619979  0.36605898  0.70199481    -0.71400
V1621       V  0.89540736  0.39050836  0.91951904     1.35200
V1622       V  0.89622935  0.39823100  0.67947883     1.35200
C1623       C  0.89508694  0.35064480  0.66030666     0.78000
C1624       C  0.89582756  0.43797487  0.94332857     0.78100
C1625       C  0.94049423  0.39418673  0.96293688     0.77900
C1626       C  0.85133167  0.39454014  0.96958085     0.77900
O1627       O  0.89778378  0.18445332  0.81998488    -0.71200
O1628       O  0.89669820  0.11905581  0.85951970    -0.71500
O1629       O  0.93043710  0.15146630  0.84204071    -0.71300
O1630       O  0.86404955  0.15203909  0.83827432    -0.71300
O1631       O  0.86457906  0.14371209  0.74005139    -0.71300
O1632       O  0.93167195  0.14345443  0.74367989    -0.71300
O1633       O  0.89758761  0.11106601  0.76111135    -0.71200
O1634       O  0.89845024  0.17593325  0.72188247    -0.71400
V1635       V  0.89728042  0.15160269  0.83800875     1.35200
V1636       V  0.89808021  0.14368255  0.74358465     1.35200
C1637       C  0.89813225  0.19123090  0.76398921     0.78000
C1638       C  0.89679076  0.10398102  0.81669758     0.78100
C1639       C  0.94238838  0.14748527  0.79391668     0.77900
C1640       C  0.85298231  0.14795300  0.78886612     0.77900
O1641       O  0.68436994  0.64480500  0.69433836    -0.71200
O1642       O  0.61887764  0.64418261  0.65712250    -0.71500
O1643       O  0.65133343  0.67771595  0.67462502    -0.71300
O1644       O  0.65180357  0.61132212  0.67580718    -0.71300
O1645       O  0.64361508  0.61066884  0.77429877    -0.71300
O1646       O  0.64355467  0.67779004  0.77335885    -0.71300
O1647       O  0.61114646  0.64439302  0.75587800    -0.71200
O1648       O  0.67609750  0.64449623  0.79278648    -0.71400
V1649       V  0.65148311  0.64447740  0.67744006     1.35200
V1650       V  0.64377817  0.64430486  0.77218877     1.35200
C1651       C  0.69128987  0.64486736  0.75011650     0.78000
C1652       C  0.60391910  0.64449399  0.70058526     0.78100
C1653       C  0.64715504  0.68907165  0.72345425     0.77900
C1654       C  0.64760327  0.59965729  0.72455398     0.77900
O1655       O  0.85604812  0.64685460  0.92013358    -0.71200
O1656       O  0.92133146  0.64549608  0.95981227    -0.71500
O1657       O  0.88961585  0.67926139  0.93813035    -0.71300
O1658       O  0.88773727  0.61302865  0.94312302    -0.71300
O1659       O  0.89698412  0.61148593  0.84540467    -0.71300
O1660       O  0.89735897  0.67860196  0.83938702    -0.71300
O1661       O  0.92946584  0.64530431  0.86127632    -0.71200
O1662       O  0.86477518  0.64495995  0.82211991    -0.71400
V1663       V  0.88881233  0.64611758  0.93834079     1.35200
V1664       V  0.89696672  0.64508604  0.84391581     1.35200
C1665       C  0.84939786  0.64611141  0.86415894     0.78000
C1666       C  0.93646410  0.64549922  0.91673963     0.78100
C1667       C  0.89385115  0.69023382  0.88839442     0.77900
C1668       C  0.89230300  0.60093062  0.89582004     0.77900
O1669       O  0.68418785  0.89532783  0.75686232    -0.71200
O1670       O  0.61854263  0.89767250  0.79185781    -0.71500
O1671       O  0.64968146  0.86340274  0.77217272    -0.71300
O1672       O  0.65293058  0.92959937  0.77790049    -0.71300
O1673       O  0.64457344  0.93188569  0.67974288    -0.71300
O1674       O  0.64324752  0.86452401  0.00486406    -0.71300
O1675       O  0.61155490  0.89834230  0.69280033    -0.71200
O1676       O  0.67648041  0.89767171  0.99071943    -0.71400
V1677       V  0.65124217  0.89654973  0.77276220     1.35200
V1678       V  0.64406733  0.89799515  0.00973798     1.35200
C1679       C  0.69143156  0.89651122  0.70135242     0.78000
C1680       C  0.60391826  0.89802382  0.74778023     0.78100
C1681       C  0.64617634  0.85282886  0.72180197     0.77900
C1682       C  0.64898730  0.94205454  0.73044901     0.77900
O1683       O  0.85699770  0.89593483  0.87113274    -0.71200
O1684       O  0.92239807  0.89835614  0.83346720    -0.71500
O1685       O  0.89129844  0.86410576  0.85608544    -0.71300
O1686       O  0.88818864  0.93019704  0.84744100    -0.71300
O1687       O  0.89690031  0.93269842  0.94529428    -0.71300
O1688       O  0.89791564  0.86564932  0.95525255    -0.71300
O1689       O  0.93003308  0.89925165  0.93213204    -0.71200
O1690       O  0.86500019  0.89881877  0.96932877    -0.71400
V1691       V  0.88982395  0.89720355  0.85403224     1.35200
V1692       V  0.89733182  0.89911067  0.94864574     1.35200
C1693       C  0.84995340  0.89702699  0.92676258     0.78000
C1694       C  0.93733586  0.89873745  0.87676480     0.78100
C1695       C  0.89510159  0.85359865  0.90667751     0.77900
C1696       C  0.89224216  0.94273311  0.89419932     0.77900
C1697       C  0.74704632  0.89545097  0.96611277     0.30300
C1698       C  0.76332196  0.89649228  0.91727893    -0.36000
C1699       C  0.78702359  0.89592896  0.93435464     0.16300
C1700       C  0.79423100  0.89451073  0.99533801     0.22100
C1701       C  0.77811304  0.89551678  0.70952037    -0.34100
C1702       C  0.75434074  0.89548018  0.69301748     0.16200
O1703       O  0.72403949  0.89617250  0.96069164    -0.26200
C1704       C  0.71646612  0.89593369  0.68578538     0.06000
C1705       C  0.73458753  0.89540168  0.72877321    -0.31000
O1706       O  0.81727753  0.89470867  0.00070031    -0.22900
C1707       C  0.82488993  0.89616107  0.94239803    -0.02900
C1708       C  0.80687062  0.89692514  0.89912795    -0.17300
H1709       H  0.75791066  0.89786596  0.86938281     0.20700
H1710       H  0.78372388  0.89532645  0.75737912     0.19100
H1711       H  0.73330675  0.89523177  0.77880450     0.19000
H1712       H  0.80827363  0.89829550  0.84921606     0.14900
C1713       C  0.89868748  0.79394700  0.87237182     0.30300
C1714       C  0.90066385  0.77443278  0.83338777    -0.36000
C1715       C  0.89826629  0.75242680  0.86212413     0.16300
C1716       C  0.89422080  0.74989102  0.92495016     0.22100
C1717       C  0.89251803  0.76941134  0.96407828    -0.34100
C1718       C  0.89500724  0.79143177  0.93536681     0.16200
O1719       O  0.89940750  0.81608173  0.85472072    -0.26200
C1720       C  0.89640505  0.82793879  0.90702174     0.06000
C1721       C  0.89371454  0.81357875  0.95897985    -0.31000
O1722       O  0.89207758  0.72775013  0.94189564    -0.22900
C1723       C  0.89482398  0.71593723  0.88937794    -0.02900
C1724       C  0.89878164  0.73033594  0.83807157    -0.17300
H1725       H  0.90359780  0.77632710  0.78404317     0.20700
H1726       H  0.88915700  0.76752604  0.01323221     0.19100
H1727       H  0.89054246  0.81869016  0.00652206     0.19000
H1728       H  0.90149436  0.72528185  0.79029087     0.14900
C1729       C  0.64605111  0.79248949  0.69078652     0.30300
C1730       C  0.64846175  0.77210252  0.65518624    -0.36000
C1731       C  0.64694539  0.75072704  0.68776280     0.16300
C1732       C  0.64317455  0.74946955  0.75096612     0.22100
C1733       C  0.64073108  0.76982382  0.78648203    -0.34100
C1734       C  0.64251198  0.79116414  0.75407073     0.16200
O1735       O  0.64743836  0.81436590  0.67031073    -0.26200
C1736       C  0.64497853  0.82710909  0.72138276     0.06000
C1737       C  0.64187523  0.81362083  0.77476888    -0.31000
O1738       O  0.64269967  0.72767954  0.77208995    -0.22900
C1739       C  0.64629865  0.71481619  0.72176136    -0.02900
C1740       C  0.64901546  0.72819120  0.66793729    -0.17300
H1741       H  0.65174367  0.77287019  0.60584783     0.20700
H1742       H  0.63784539  0.76906421  0.83598459     0.19100
H1743       H  0.63967293  0.81954670  0.82202762     0.19000
H1744       H  0.65214664  0.72216063  0.62114322     0.14900
C1745       C  0.74671472  0.64763981  0.81984873     0.30300
C1746       C  0.76264364  0.64939934  0.86919083    -0.36000
C1747       C  0.78648790  0.64824786  0.85334625     0.16300
C1748       C  0.79414373  0.64566126  0.79301378     0.22100
C1749       C  0.77821001  0.64404845  0.74358398    -0.34100
C1750       C  0.75434360  0.64513541  0.75946240     0.16200
O1751       O  0.72363883  0.64785476  0.82433223    -0.26200
C1752       C  0.71635311  0.64552780  0.76608777     0.06000
C1753       C  0.73467455  0.64378755  0.72365099    -0.31000
O1754       O  0.81721769  0.64466150  0.78891624    -0.22900
C1755       C  0.82442098  0.64657740  0.84737106    -0.02900
C1756       C  0.80608284  0.64891840  0.88947013    -0.17300
H1757       H  0.75686040  0.65135811  0.91666684     0.20700
H1758       H  0.78399150  0.64185631  0.69618018     0.19100
H1759       H  0.73358899  0.64159739  0.67395167     0.19000
H1760       H  0.80710532  0.65075672  0.93928610     0.14900
C1761       C  0.89521327  0.04679085  0.87856539     0.30300
C1762       C  0.89597497  0.02908747  0.92438629    -0.36000
C1763       C  0.89381236  0.00587887  0.90308017     0.16300
C1764       C  0.89090830  0.00066218  0.84110517     0.22100
C1765       C  0.89018461  0.01824172  0.79557601    -0.34100
C1766       C  0.89255078  0.04126806  0.81672467     0.16200
O1767       O  0.89707586  0.06967905  0.88741113    -0.26200
C1768       C  0.89571714  0.07871177  0.83037379     0.06000
C1769       C  0.89293923  0.06184590  0.78471835    -0.31000
O1770       O  0.88963497  0.97798417  0.83087739    -0.22900
C1771       C  0.89187068  0.96833652  0.88677305    -0.02900
C1772       C  0.89449733  0.98478899  0.93382549    -0.17300
H1773       H  0.89832437  0.03311277  0.97294903     0.20700
H1774       H  0.88816747  0.01420093  0.74688653     0.19100
H1775       H  0.89133323  0.06441749  0.73511282     0.19000
H1776       H  0.89687157  0.98166010  0.98297707     0.14900
C1777       C  0.89573457  0.53961155  0.87994164     0.30300
C1778       C  0.89946850  0.51794774  0.85044664    -0.36000
C1779       C  0.89703943  0.49779951  0.88811099     0.16300
C1780       C  0.89149240  0.49902821  0.95037857     0.22100
C1781       C  0.88761270  0.52053219  0.97954765    -0.34100
C1782       C  0.88994993  0.54051954  0.94207541     0.16200
O1783       O  0.89725875  0.56076171  0.85437403    -0.26200
C1784       C  0.89230258  0.57518894  0.90100443     0.06000
C1785       C  0.88761060  0.56352130  0.95643961    -0.31000
O1786       O  0.89045037  0.47826637  0.97729118    -0.22900
C1787       C  0.89520274  0.46337616  0.93184130    -0.02900
C1788       C  0.89940059  0.47445148  0.87507700    -0.17300
H1789       H  0.90401234  0.51687742  0.80179616     0.20700
H1790       H  0.88309388  0.52161133  0.02819469     0.19100
H1791       H  0.88332607  0.57097094  0.00111859     0.19000
H1792       H  0.90375996  0.46649562  0.83109468     0.14900
C1793       C  0.89701433  0.25276447  0.75546803     0.30300
C1794       C  0.89668209  0.27587407  0.77771868    -0.36000
C1795       C  0.89559946  0.29367722  0.73252723     0.16300
C1796       C  0.89486552  0.28913231  0.66973342     0.22100
C1797       C  0.89515843  0.26603960  0.64750606    -0.34100
C1798       C  0.89631743  0.24825109  0.69265622     0.16200
O1799       O  0.89792871  0.23337405  0.78933170    -0.26200
C1800       C  0.89786742  0.21628662  0.74750022     0.06000
C1801       C  0.89692821  0.22451598  0.68669940    -0.31000
O1802       O  0.89375752  0.30817858  0.96582087    -0.22900
C1803       C  0.89477007  0.32562537  0.67733494    -0.02900
C1804       C  0.89547912  0.31745085  0.73826418    -0.17300
H1805       H  0.89735581  0.27975268  0.82671157     0.20700
H1806       H  0.89178807  0.26169615  0.92878268     0.19100
H1807       H  0.89653277  0.21442982  0.64431397     0.19000
H1808       H  0.89613589  0.32758565  0.78054652     0.14900
C1809       C  0.64976742  0.04365643  0.78491255     0.30300
C1810       C  0.65271040  0.02197641  0.81465387    -0.36000
C1811       C  0.65113335  0.00219941  0.77691426     0.16300
C1812       C  0.64693021  0.00347435  0.71396805     0.22100
C1813       C  0.64415343  0.02532113  0.68390011    -0.34100
C1814       C  0.64580147  0.04526567  0.72187735     0.16200
O1815       O  0.65022415  0.06424912  0.81202361    -0.26200
C1816       C  0.64666413  0.07943474  0.76600895     0.06000
C1817       C  0.64384597  0.06871200  0.70859043    -0.31000
O1818       O  0.64573412  0.98246326  0.68828205    -0.22900
C1819       C  0.64930935  0.96775834  0.73566264    -0.02900
C1820       C  0.65279425  0.97910149  0.79171760    -0.17300
H1821       H  0.65596305  0.02060740  0.86392797     0.20700
H1822       H  0.64077953  0.02666990  0.63465186     0.19100
H1823       H  0.64057243  0.07693914  0.66405316     0.19000
H1824       H  0.65579790  0.97138913  0.83704459     0.14900
C1825       C  0.74910926  0.14682845  0.77110349     0.30300
C1826       C  0.76879973  0.14467800  0.73235404    -0.36000
C1827       C  0.79072356  0.14641646  0.76141833     0.16300
C1828       C  0.79303680  0.15012402  0.82429313     0.22100
C1829       C  0.77333970  0.15212620  0.86310362    -0.34100
C1830       C  0.75141513  0.15016739  0.83413212     0.16200
O1831       O  0.72700988  0.14597618  0.75350528    -0.26200
C1832       C  0.71496971  0.14853548  0.80594420     0.06000
C1833       C  0.72919829  0.15111373  0.85780591    -0.31000
O1834       O  0.81514715  0.15124016  0.84178515    -0.22900
C1835       C  0.82719594  0.14812203  0.78956704    -0.02900
C1836       C  0.81293651  0.14501697  0.73793117    -0.17300
H1837       H  0.76710121  0.14174548  0.68308831     0.20700
H1838       H  0.77503331  0.15502659  0.91238092     0.19100
H1839       H  0.72394356  0.15365207  0.90555600     0.19000
H1840       H  0.81816833  0.14215611  0.69029628     0.14900
C1841       C  0.64432214  0.49516073  0.72231022     0.30300
C1842       C  0.64295987  0.51346615  0.76597107    -0.36000
C1843       C  0.64488759  0.53650205  0.74190117     0.16300
C1844       C  0.64802040  0.54094916  0.67939724     0.22100
C1845       C  0.64926841  0.52283679  0.63617584    -0.34100
C1846       C  0.64725092  0.50005881  0.66000304     0.16200
O1847       O  0.64287105  0.47227014  0.73354244    -0.26200
C1848       C  0.64466323  0.46270046  0.00747885     0.06000
C1849       C  0.64851628  0.47917230  0.96079594    -0.31000
O1850       O  0.64945732  0.56345977  0.66628778    -0.22900
C1851       C  0.64717246  0.57390092  0.72078976    -0.02900
C1852       C  0.64421903  0.55805972  0.76990685    -0.17300
H1853       H  0.64048463  0.51000112  0.81494399     0.20700
H1854       H  0.65439971  0.52619990  0.91856482     0.19100
H1855       H  0.65122907  0.47618650  0.91176231     0.19000
H1856       H  0.64193629  0.56185543  0.81866109     0.14900
C1857       C  0.79136924  0.39467610  0.93600267     0.30300
C1858       C  0.77144297  0.39340726  0.89806161    -0.36000
C1859       C  0.74972903  0.39508688  0.92833657     0.16300
C1860       C  0.74787737  0.39753943  0.99177720     0.22100
C1861       C  0.76774024  0.39780174  0.69721300    -0.34100
C1862       C  0.78946094  0.39748067  0.99931614     0.16200
O1863       O  0.81333955  0.39323195  0.91744946    -0.26200
C1864       C  0.82564357  0.39517447  0.96952704     0.06000
C1865       C  0.81162808  0.39748372  0.68830206    -0.31000
O1866       O  0.72595425  0.39787489  0.01084469    -0.22900
C1867       C  0.71354322  0.39586456  0.95900689    -0.02900
C1868       C  0.72734878  0.39418782  0.90596124    -0.17300
H1869       H  0.77283240  0.39093097  0.84863445     0.20700
H1870       H  0.76655492  0.39994223  0.74679187     0.19100
H1871       H  0.81728048  0.39938468  0.73591215     0.19000
H1872       H  0.72173564  0.39205834  0.85839339     0.14900
C1873       C  0.64392326  0.28892151  0.92828195     0.30300
C1874       C  0.64444555  0.26556616  0.94943538    -0.36000
C1875       C  0.64388860  0.24824129  0.90346165     0.16300
C1876       C  0.64298254  0.25341493  0.84085665     0.22100
C1877       C  0.64238685  0.27679009  0.81970157    -0.34100
C1878       C  0.64286464  0.29412487  0.86571261     0.16200
O1879       O  0.64429078  0.30792798  0.96312727    -0.26200
C1880       C  0.64339058  0.32552267  0.92226637     0.06000
C1881       C  0.64247043  0.31796158  0.86103572    -0.31000
O1882       O  0.64278647  0.23436376  0.80609741    -0.22900
C1883       C  0.64348792  0.21680607  0.84715002    -0.02900
C1884       C  0.64416244  0.22442926  0.90830960    -0.17300
H1885       H  0.64523279  0.26118151  0.99829071     0.20700
H1886       H  0.64160410  0.28119799  0.77088182     0.19100
H1887       H  0.64166079  0.32853556  0.81916847     0.19000
H1888       H  0.64488252  0.21390226  0.95026998     0.14900
C1889       C  0.04685280  0.14759932  0.79619161     0.30300
C1890       C  0.02847040  0.14604965  0.75272529    -0.36000
C1891       C  0.00550158  0.14706129  0.77704487     0.16300
C1892       C  0.00113558  0.14957874  0.83965167     0.22100
C1893       C  0.01935760  0.15114734  0.88273340    -0.34100
C1894       C  0.04210441  0.14998872  0.85860821     0.16200
O1895       O  0.06969080  0.14651359  0.78467020    -0.26200
C1896       C  0.07944035  0.14814967  0.84068809     0.06000
C1897       C  0.06306640  0.15036713  0.88809218    -0.31000
O1898       O  0.97861574  0.15001374  0.85291581    -0.22900
C1899       C  0.96813952  0.14766320  0.79834976    -0.02900
C1900       C  0.98394932  0.14573116  0.74914817    -0.17300
H1901       H  0.03185086  0.14391956  0.70373626     0.20700
H1902       H  0.01599101  0.15293846  0.93187691     0.19100
H1903       H  0.06618785  0.15179103  0.93744394     0.19000
H1904       H  0.98012753  0.14370206  0.70032630     0.14900
C1905       C  0.49590177  0.14411567  0.78815882     0.30300
C1906       C  0.51385597  0.14272577  0.83278470    -0.36000
C1907       C  0.53696948  0.14414407  0.80988333     0.16300
C1908       C  0.54187722  0.14684523  0.74749974     0.22100
C1909       C  0.52405937  0.14808692  0.70314457    -0.34100
C1910       C  0.50112399  0.14658587  0.72590763     0.16200
O1911       O  0.47302785  0.14319419  0.79860158    -0.26200
C1912       C  0.46369777  0.14500190  0.74215447     0.06000
C1913       C  0.48036725  0.14714424  0.69535117    -0.31000
O1914       O  0.56447987  0.14822101  0.73593436    -0.22900
C1915       C  0.57440002  0.14630575  0.79140125    -0.02900
C1916       C  0.55819771  0.14361814  0.83944458    -0.17300
H1917       H  0.51006593  0.14070657  0.88171082     0.20700
H1918       H  0.52785517  0.15018015  0.65422428     0.19100
H1919       H  0.47755848  0.14884647  0.64587844     0.19000
H1920       H  0.56155561  0.14184880  0.88863730     0.14900
C1921       C  0.28938460  0.14382553  0.67076907     0.30300
C1922       C  0.26622487  0.14462486  0.69308097    -0.36000
C1923       C  0.24850413  0.14315160  0.97941518     0.16300
C1924       C  0.25345739  0.14261615  0.91672274     0.22100
C1925       C  0.27669925  0.14181916  0.89525323    -0.34100
C1926       C  0.29417668  0.14170840  0.94099463     0.16200
O1927       O  0.30871581  0.14369651  0.70461536    -0.26200
C1928       C  0.32592860  0.14300939  0.66280331     0.06000
C1929       C  0.31793710  0.14128150  0.93575323    -0.31000
O1930       O  0.23434441  0.14299982  0.88210497    -0.22900
C1931       C  0.21692797  0.14372161  0.92325129    -0.02900
C1932       C  0.22471601  0.14383067  0.98441913    -0.17300
H1933       H  0.26227500  0.14506668  0.74214690     0.20700
H1934       H  0.28090798  0.14139512  0.84633207     0.19100
H1935       H  0.32827627  0.14088461  0.89358561     0.19000
H1936       H  0.21454055  0.14580436  0.69638817     0.14900
C1937       C  0.04450861  0.39849829  0.95879024     0.30300
C1938       C  0.02613134  0.39967393  0.00232564    -0.36000
C1939       C  0.00330121  0.39752772  0.97828082     0.16300
C1940       C  0.99903589  0.39438901  0.91585108     0.22100
C1941       C  0.01728379  0.39335475  0.87257216    -0.34100
C1942       C  0.03994732  0.39556223  0.89645835     0.16200
O1943       O  0.06723455  0.39990264  0.97046079    -0.26200
C1944       C  0.07713775  0.39791756  0.91472858     0.06000
C1945       C  0.06099874  0.39523209  0.86712014    -0.31000
O1946       O  0.97657240  0.39266751  0.90308877    -0.22900
C1947       C  0.96612326  0.39478330  0.95782663    -0.02900
C1948       C  0.98181515  0.39789741  0.00658437    -0.17300
H1949       H  0.02933731  0.40053321  0.71606562     0.20700
H1950       H  0.01400129  0.39094080  0.82361353     0.19100
H1951       H  0.06433409  0.39318634  0.81800349     0.19000
H1952       H  0.97792644  0.39848112  0.72052533     0.14900
C1953       C  0.14989309  0.29387992  0.85381825     0.30300
C1954       C  0.15246394  0.27363769  0.81785134    -0.36000
C1955       C  0.15144759  0.25218937  0.85007120     0.16300
C1956       C  0.14815208  0.25066683  0.91341610     0.22100
C1957       C  0.14585721  0.27094225  0.94953756    -0.34100
C1958       C  0.14693197  0.29241926  0.91729284     0.16200
O1959       O  0.14999043  0.31574653  0.83312827    -0.26200
C1960       C  0.14725092  0.32845142  0.88412799     0.06000
C1961       C  0.14532334  0.31489777  0.93786476    -0.31000
O1962       O  0.14718627  0.22872425  0.93359009    -0.22900
C1963       C  0.14997445  0.21610291  0.88240219    -0.02900
C1964       C  0.15277838  0.22977376  0.82917271    -0.17300
H1965       H  0.15504942  0.27455669  0.76824131     0.20700
H1966       H  0.14316500  0.27002437  0.99912552     0.19100
H1967       H  0.14298322  0.32078626  0.98510452     0.19000
H1968       H  0.15507282  0.22399341  0.78181909     0.14900
C1969       C  0.49735758  0.39182732  0.70849027     0.30300
C1970       C  0.51954561  0.38857175  0.06767929    -0.36000
C1971       C  0.53912521  0.39071307  0.02883731     0.16300
C1972       C  0.53750138  0.39610446  0.96647297     0.22100
C1973       C  0.51537529  0.39922300  0.60729985    -0.34100
C1974       C  0.49560069  0.39707464  0.64604917     0.16200
O1975       O  0.47685758  0.39118799  0.73651141    -0.26200
C1976       C  0.46163110  0.39592728  0.69162028     0.06000
C1977       C  0.47220772  0.39968202  0.63410470    -0.31000
O1978       O  0.55829936  0.39761631  0.93943766    -0.22900
C1979       C  0.57327266  0.39303067  0.98525898    -0.02900
C1980       C  0.56230507  0.38858255  0.04175676    -0.17300
H1981       H  0.52114733  0.38447871  0.11656951     0.20700
H1982       H  0.51389565  0.40364460  0.55858323     0.19100
H1983       H  0.46391158  0.40391145  0.59032942     0.19000
H1984       H  0.57030701  0.38461674  0.08610281     0.14900
C1985       C  0.39622602  0.29246227  0.68895808     0.30300
C1986       C  0.39709258  0.27326509  0.64852611    -0.36000
C1987       C  0.39683953  0.25094523  0.67645269     0.16300
C1988       C  0.39584349  0.24789472  0.73992152     0.22100
C1989       C  0.39539858  0.26706884  0.78034501    -0.34100
C1990       C  0.39562874  0.28934984  0.75243716     0.16200
O1991       O  0.39555482  0.31477714  0.67265636    -0.26200
C1992       C  0.39467878  0.32611622  0.72635829     0.06000
C1993       C  0.39480743  0.31122885  0.77773623    -0.31000
O1994       O  0.39505089  0.22562638  0.75633281    -0.22900
C1995       C  0.39565141  0.21415761  0.70283981    -0.02900
C1996       C  0.39689691  0.22896537  0.65131438    -0.17300
H1997       H  0.39770501  0.27566147  0.59888035     0.20700
H1998       H  0.39465336  0.26468410  0.83001112     0.19100
H1999       H  0.39399708  0.31583753  0.82631669     0.19000
H2000       H  0.39737958  0.22425118  0.60278083     0.14900
C2001       C  0.24638189  0.39947156  0.79502048     0.30300
C2002       C  0.26269256  0.40025631  0.74627927    -0.36000
C2003       C  0.28632587  0.39845976  0.76330619     0.16300
C2004       C  0.29345912  0.39614858  0.82417632     0.22100
C2005       C  0.27711676  0.39535624  0.87301909    -0.34100
C2006       C  0.25343203  0.39712006  0.85595609     0.16200
O2007       O  0.22341250  0.40064483  0.78940840    -0.26200
C2008       C  0.21559204  0.39907321  0.84743534     0.06000
C2009       C  0.23345020  0.39684472  0.89094342    -0.31000
O2010       O  0.31648282  0.39492547  0.82938782    -0.22900
C2011       C  0.32412215  0.39637131  0.77109394    -0.02900
C2012       C  0.30616393  0.39860329  0.72802637    -0.17300
H2013       H  0.25734128  0.40212564  0.69842612     0.20700
H2014       H  0.28246252  0.39344553  0.92086413     0.19100
H2015       H  0.23186591  0.39506440  0.94074878     0.19000
H2016       H  0.30761994  0.40032401  0.67819919     0.14900
C2017       C  0.14761106  0.99916308  0.82040711     0.30300
C2018       C  0.15082273  0.02080337  0.79048533    -0.36000
C2019       C  0.14882747  0.04067506  0.82776653     0.16300
C2020       C  0.14398198  0.03953664  0.89044929     0.22100
C2021       C  0.14087348  0.01772780  0.92066649    -0.34100
C2022       C  0.14297166  0.99768386  0.88318011     0.16200
O2023       O  0.14859250  0.97848612  0.79380507    -0.26200
C2024       C  0.14471177  0.96336618  0.83990694     0.02800
C2025       C  0.14113053  0.97423250  0.89685570    -0.31000
O2026       O  0.14280546  0.06061394  0.91584334    -0.22900
C2027       C  0.14700646  0.07522874  0.86850770    -0.02900
C2028       C  0.15088622  0.06374478  0.81281059    -0.17300
H2029       H  0.15471787  0.02206800  0.74147173     0.20700
H2030       H  0.13704245  0.01646766  0.96971935     0.19100
H2031       H  0.13751625  0.96608588  0.94137068     0.19000
H2032       H  0.15459774  0.07134852  0.76766599     0.14900
C2033       C  0.04083025  0.89408698  0.85626017     0.30300
C2034       C  0.02303675  0.89297498  0.90095838    -0.36000
C2035       C  0.00011383  0.89527454  0.87889451     0.16300
C2036       C  0.99485586  0.89824551  0.81689132     0.22100
C2037       C  0.01280256  0.89940158  0.77181742    -0.34100
C2038       C  0.03594837  0.89729650  0.79409647     0.16200
O2039       O  0.06341648  0.89257877  0.86754258    -0.26200
C2040       C  0.07344582  0.89492714  0.81218926     0.06000
C2041       C  0.05725486  0.89795851  0.76435088    -0.31000
O2042       O  0.97197988  0.89991186  0.80719483    -0.22900
C2043       C  0.96270212  0.89815001  0.86389216    -0.02900
C2044       C  0.97941080  0.89524913  0.91009038    -0.17300
H2045       H  0.02684996  0.89062009  0.94976092     0.20700
H2046       H  0.00899893  0.90190409  0.72307622     0.19100
H2047       H  0.06066527  0.90032168  0.71530750     0.19000
H2048       H  0.97666125  0.89326682  0.95954984     0.14900
C2049       C  0.14670721  0.50227618  0.93009245     0.30300
C2050       C  0.14810709  0.52044074  0.97310553    -0.36000
C2051       C  0.14653185  0.54318170  0.94891412     0.16300
C2052       C  0.14385047  0.54800328  0.88651400     0.22100
C2053       C  0.14233983  0.52965160  0.84309575    -0.34100
C2054       C  0.14383985  0.50666306  0.86749970     0.16200
O2055       O  0.14787674  0.47977524  0.94339562    -0.26200
C2056       C  0.14568208  0.46931826  0.88890420     0.06000
C2057       C  0.14304878  0.48510812  0.83965707    -0.31000
O2058       O  0.14280786  0.57087790  0.87492964    -0.22900
C2059       C  0.14476072  0.58052380  0.93089971    -0.02900
C2060       C  0.14710697  0.56408090  0.97831344    -0.17300
H2061       H  0.15027584  0.51704241  0.02220651     0.20700
H2062       H  0.14011535  0.53304592  0.79403524     0.19100
H2063       H  0.14098295  0.48127876  0.79087074     0.19000
H2064       H  0.14892957  0.56712515  0.02759079     0.14900
C2065       C  0.03773101  0.64640404  0.98174326     0.30300
C2066       C  0.01589043  0.64359350  0.01166562    -0.36000
C2067       C  0.99594369  0.64517707  0.97342892     0.16300
C2068       C  0.99755039  0.64908008  0.91028759     0.22100
C2069       C  0.01920704  0.65202162  0.88066420    -0.34100
C2070       C  0.03897002  0.65056473  0.91868359     0.16200
O2071       O  0.05878712  0.64508197  0.67094070    -0.26200
C2072       C  0.07341683  0.64905035  0.96029461     0.06000
C2073       C  0.06202468  0.65240499  0.90407515    -0.31000
O2074       O  0.97697175  0.64958534  0.88296336    -0.22900
C2075       C  0.96177900  0.64611256  0.92890565    -0.02900
C2076       C  0.97249383  0.64330755  0.98652598    -0.17300
H2077       H  0.01462326  0.63847492  0.72316139     0.20700
H2078       H  0.02055876  0.65517968  0.83124413     0.19100
H2079       H  0.06968569  0.65552381  0.85875259     0.19000
H2080       H  0.96425383  0.64018590  0.03110865     0.14900
C2081       C  0.14382113  0.75394044  0.67742970     0.30300
C2082       C  0.14432039  0.77734594  0.65679405    -0.36000
C2083       C  0.14364344  0.79450850  0.70311812     0.16300
C2084       C  0.14257870  0.78916291  0.76562234     0.22100
C2085       C  0.14198869  0.76572013  0.78631059    -0.34100
C2086       C  0.14266602  0.74852634  0.73989943     0.16200
O2087       O  0.14439619  0.73507295  0.64212754    -0.26200
C2088       C  0.14358234  0.71734141  0.68256418     0.06000
C2089       C  0.14248954  0.72467185  0.74399086    -0.31000
O2090       O  0.14238738  0.80813165  0.80073037    -0.22900
C2091       C  0.14330919  0.82578755  0.75996002    -0.02900
C2092       C  0.14406232  0.81830995  0.69869074    -0.17300
H2093       H  0.14526201  0.78189440  0.60804632     0.20700
H2094       H  0.14115853  0.76118682  0.83509612     0.19100
H2095       H  0.14168883  0.71393857  0.78559708     0.19000
H2096       H  0.14494589  0.82893064  0.65689383     0.14900
C2097       C  0.39571254  0.04107661  0.76421654     0.30300
C2098       C  0.39448774  0.02340007  0.80945451    -0.36000
C2099       C  0.39637912  0.00037732  0.78795667     0.16300
C2100       C  0.39919406  0.99495498  0.72608497     0.22100
C2101       C  0.40059634  0.01277208  0.68059696    -0.34100
C2102       C  0.39876713  0.03597222  0.70221660     0.16200
O2103       O  0.39406425  0.06371784  0.77456277    -0.26200
C2104       C  0.39613995  0.07347805  0.71870005     0.06000
C2105       C  0.39919465  0.05712028  0.67158358    -0.31000
O2106       O  0.40014245  0.97203119  0.71675191    -0.22900
C2107       C  0.39800264  0.96285990  0.77350760    -0.02900
C2108       C  0.39567034  0.97969066  0.81946038    -0.17300
H2109       H  0.39208538  0.02735519  0.85807382     0.20700
H2110       H  0.40284003  0.00882113  0.63193797     0.19100
H2111       H  0.40124762  0.06032472  0.62233826     0.19000
H2112       H  0.39352923  0.97702355  0.86891476     0.14900
C2113       C  0.50040437  0.89386738  0.76179311     0.30300
C2114       C  0.51850864  0.89344501  0.71798649    -0.36000
C2115       C  0.54125414  0.89546435  0.74147360     0.16300
C2116       C  0.54603172  0.89758857  0.80392704     0.22100
C2117       C  0.52779348  0.89813392  0.84798994    -0.34100
C2118       C  0.50486826  0.89624897  0.82435588     0.16200
O2119       O  0.47789640  0.89234773  0.74941084    -0.26200
C2120       C  0.46758836  0.89387153  0.80451858     0.06000
C2121       C  0.48344694  0.89635675  0.85316839    -0.31000
O2122       O  0.56880368  0.89889089  0.81517953    -0.22900
C2123       C  0.57851481  0.89770678  0.75904185    -0.02900
C2124       C  0.56220308  0.89561691  0.71160730    -0.17300
H2125       H  0.51504905  0.89166330  0.66892237     0.20700
H2126       H  0.53125038  0.89994100  0.89702859     0.19100
H2127       H  0.47973981  0.89804282  0.90218191     0.19000
H2128       H  0.56486704  0.89468402  0.99400227     0.14900
C2129       C  0.29181469  0.89763351  0.83999137     0.30300
C2130       C  0.27098466  0.89945089  0.87447355    -0.36000
C2131       C  0.24998988  0.89770318  0.84073824     0.16300
C2132       C  0.24945563  0.89473884  0.77728077     0.22100
C2133       C  0.27026105  0.89281769  0.74293486    -0.34100
C2134       C  0.29122094  0.89437390  0.77665776     0.16200
O2135       O  0.31345178  0.89829981  0.86201439    -0.26200
C2136       C  0.32680810  0.89534453  0.81195933     0.06000
C2137       C  0.31390402  0.89284040  0.75768368    -0.31000
O2138       O  0.22787418  0.89352594  0.75516917    -0.22900
C2139       C  0.21441089  0.89547723  0.80531799    -0.02900
C2140       C  0.22721953  0.89806421  0.85980587    -0.17300
H2141       H  0.27112882  0.90193019  0.92408096     0.20700
H2142       H  0.27011632  0.88986408  0.69356710     0.19100
H2143       H  0.32034665  0.89017334  0.71099252     0.19000
H2144       H  0.22065368  0.89993542  0.90666002     0.14900
C2145       C  0.39413482  0.54544725  0.72634222     0.30300
C2146       C  0.39568287  0.52688856  0.76965471    -0.36000
C2147       C  0.39353288  0.50406983  0.74542611     0.16300
C2148       C  0.38991757  0.50001971  0.68308997     0.22100
C2149       C  0.38921314  0.51846407  0.97162627    -0.34100
C2150       C  0.39160331  0.54108218  0.99538750     0.16200
O2151       O  0.39622848  0.56817884  0.73778143    -0.26200
C2152       C  0.39469831  0.57826381  0.01287390     0.06000
C2153       C  0.39116835  0.56211666  0.96583697    -0.31000
O2154       O  0.38883091  0.47757631  0.66978327    -0.22900
C2155       C  0.39185640  0.46686285  0.72401797    -0.02900
C2156       C  0.39485536  0.48239813  0.77310001    -0.17300
H2157       H  0.39872964  0.53001425  0.81840917     0.20700
H2158       H  0.38626361  0.51526673  0.92284521     0.19100
H2159       H  0.38871623  0.56543311  0.91676894     0.19000
H2160       H  0.39778092  0.47832946  0.82157063     0.14900
C2161       C  0.50263180  0.64366782  0.96603629     0.30300
C2162       C  0.52445299  0.64080598  0.93628916    -0.36000
C2163       C  0.54438068  0.64395723  0.64444303     0.16300
C2164       C  0.54285693  0.64929181  0.70669305     0.22100
C2165       C  0.52121111  0.65297542  0.73569320    -0.34100
C2166       C  0.50139923  0.65062394  0.69809564     0.16200
O2167       O  0.48162855  0.64267625  0.94008126    -0.26200
C2168       C  0.46698764  0.64654260  0.98719194     0.06000
C2169       C  0.47831780  0.65255736  0.71241630    -0.31000
O2170       O  0.56347398  0.65010749  0.73390098    -0.22900
C2171       C  0.57857778  0.64539832  0.68868235    -0.02900
C2172       C  0.56777336  0.64150828  0.63173040    -0.17300
H2173       H  0.52579917  0.63734836  0.88714757     0.20700
H2174       H  0.51989177  0.65721283  0.78441456     0.19100
H2175       H  0.47065062  0.65656997  0.75708618     0.19000
H2176       H  0.57606574  0.63766205  0.91700837     0.14900
C2177       C  0.24882077  0.64562559  0.00143179     0.30300
C2178       C  0.26890618  0.64313623  0.70552079    -0.36000
C2179       C  0.29050839  0.64455178  0.00460148     0.16300
C2180       C  0.29179148  0.64896612  0.94163526     0.22100
C2181       C  0.27141649  0.65215831  0.90625778    -0.34100
C2182       C  0.25009413  0.65034995  0.93861832     0.16200
O2183       O  0.22676439  0.64502148  0.68971789    -0.26200
C2184       C  0.21418553  0.64893470  0.97184066     0.06000
C2185       C  0.22760985  0.65261024  0.91863743    -0.31000
O2186       O  0.31362783  0.65020252  0.92117960    -0.22900
C2187       C  0.32641487  0.64680039  0.97196555    -0.02900
C2188       C  0.31298422  0.64321884  0.02512492    -0.17300
H2189       H  0.26805967  0.64053597  0.75516811     0.20700
H2190       H  0.27214753  0.65607135  0.85717448     0.19100
H2191       H  0.22162533  0.65629738  0.87196289     0.19000
H2192       H  0.31860371  0.64157698  0.74191036     0.14900
C2193       C  0.39708565  0.75268964  0.93882276     0.30300
C2194       C  0.39652144  0.77594685  0.95995858    -0.36000
C2195       C  0.39649288  0.79348613  0.91387912     0.16300
C2196       C  0.39695507  0.78859717  0.85124387     0.22100
C2197       C  0.39755616  0.76534278  0.83013204    -0.34100
C2198       C  0.39762915  0.74781553  0.87619056     0.16200
O2199       O  0.39705624  0.73348226  0.97363523    -0.26200
C2200       C  0.39763146  0.71613168  0.93258349     0.06000
C2201       C  0.39804716  0.72404007  0.87138931    -0.31000
O2202       O  0.39692870  0.80778889  0.81639031    -0.22900
C2203       C  0.39648100  0.82516339  0.85738528    -0.02900
C2204       C  0.39617542  0.81727871  0.91861343    -0.17300
H2205       H  0.39612500  0.78010483  0.00883869     0.20700
H2206       H  0.39795943  0.76115690  0.78129095     0.19100
H2207       H  0.39841767  0.71371087  0.82941091     0.19000
H2208       H  0.39588651  0.82763014  0.96055258     0.14900
loop_ 
_geom_bond_atom_site_label_1 
_geom_bond_atom_site_label_2 
_geom_bond_distance 
_geom_bond_site_symmetry_2 
_ccdc_geom_bond_type 
O1            V9   1.913       .  S
O1           C11   1.267       .  A
O2         V1481   1.911       .  S
O2         C1484   1.266       .  A
O3            V9   1.888       .  S
O3           C13   1.262       .  A
O4            V9   1.890       .  S
O4           C14   1.261       .  A
O5           V10   1.910       .  S
O5           C14   1.266       .  A
O6           V10   1.914       .  S
O6           C13   1.267       .  A
O7           V10   1.884       .  S
O7           C12   1.261       .  A
O8           V10   1.886       .  S
O8           C11   1.261       .  A
V9          O738   1.910       .  S
V9           V10   2.088       .  T
C11         C728   1.469       .  S
C12         O738   1.265       .  A
C12         C680   1.465       .  S
C13         C696   1.471       .  S
C14         C715   1.467       .  S
O15          V23   1.911       .  S
O15          C25   1.267       .  A
O16          V23   1.911       .  S
O16          C26   1.266       .  A
O17          V23   1.886       .  S
O17          C27   1.261       .  A
O18          V23   1.889       .  S
O18          C28   1.261       .  A
O19          V24   1.911       .  S
O19          C28   1.267       .  A
O20          V24   1.914       .  S
O20          C27   1.267       .  A
O21          V24   1.890       .  S
O21          C26   1.263       .  A
O22          V24   1.891       .  S
O22          C25   1.262       .  A
V23          V24   2.089       .  T
C25         C731   1.470       .  S
C26         C635   1.470       .  S
C27         C648   1.467       .  S
C28         C664   1.469       .  S
O29          V37   1.915       .  S
O29         C775   1.268       .  A
O30          V37   1.919       .  S
O30          C40   1.267       .  A
O31          V37   1.888       .  S
O31          C41   1.262       .  A
O32          V37   1.890       .  S
O32          C42   1.261       .  A
O33          V38   1.911       .  S
O33        C1514   1.267   1_554  A
O34          V38   1.913       .  S
O34        C1513   1.266   1_554  A
O35          V38   1.883   1_556  S
O35        C1512   1.261       .  A
O36          V38   1.886       .  S
O36          C39   1.260   1_554  A
V37         V774   2.088       .  T
V38        V1509   2.088   1_554  T
C39        O1501   1.268       .  A
C39         C616   1.471   1_556  S
C40         O771   1.261       .  A
C40         C587   1.472       .  S
C41         O770   1.267       .  A
C41         C600   1.471       .  S
C42         O769   1.266       .  A
C42         C712   1.469       .  S
O43          V51   1.917       .  S
O43          C53   1.268       .  A
O44          V51   1.913       .  S
O44          C54   1.267       .  A
O45          V51   1.885       .  S
O45          C55   1.261       .  A
O46          V51   1.890       .  S
O46          C56   1.261       .  A
O47          V52   1.911       .  S
O47          C56   1.267       .  A
O48          V52   1.916       .  S
O48          C55   1.267       .  A
O49          V52   1.887       .  S
O49          C54   1.261       .  A
O50          V52   1.886       .  S
O50          C53   1.261       .  A
V51          V52   2.088       .  T
C53         C619   1.472       .  S
C54         C552   1.467       .  S
C55         C568   1.468       .  S
C56         C667   1.468       .  S
O57          V65   1.907       .  S
O57          C67   1.267       .  A
O58          V65   1.907   1_556  S
O58          C68   1.265   1_556  A
O59          V65   1.891       .  S
O59          C69   1.261       .  A
O60          V65   1.885       .  S
O60          C70   1.261       .  A
O61          V66   1.912       .  S
O61          C70   1.266       .  A
O62          V66   1.908       .  S
O62          C69   1.266       .  A
O63          V66   1.892       .  S
O63          C68   1.262       .  A
O64          V66   1.894       .  S
O64          C67   1.261       .  A
V65          V66   2.089       .  T
C67         C539   1.468       .  S
C68         C504   1.466       .  S
C69         C520   1.467       .  S
C70         C683   1.465       .  S
O71          V79   1.910       .  S
O71          C81   1.267       .  A
O72          V79   1.909       .  S
O72          C82   1.265       .  A
O73          V79   1.891       .  S
O73          C83   1.262       .  A
O74          V79   1.889       .  S
O74          C84   1.262       .  A
O75          V80   1.911       .  S
O75          C84   1.266       .  A
O76          V80   1.906       .  S
O76          C83   1.266       .  A
O77          V80   1.890       .  S
O77          C82   1.262       .  A
O78          V80   1.891       .  S
O78          C81   1.261       .  A
V79          V80   2.088       .  T
C81         C536   1.468       .  S
C82         C472   1.468       .  S
C83         C488   1.466       .  S
C84         C584   1.468       .  S
O85          V93   1.914       .  S
O85          C95   1.267       .  A
O86          V93   1.911       .  S
O86          C96   1.266       .  A
O87          V93   1.887       .  S
O87          C97   1.260       .  A
O88          V93   1.885       .  S
O88          C98   1.261       .  A
O89        V1566   1.917       .  S
O89          C98   1.268   1_556  A
O90          V94   1.911       .  S
O90         C833   1.267       .  A
O91        V1566   1.890   1_554  S
O91          C96   1.262       .  A
O92          V94   1.889       .  S
O92         C831   1.262       .  A
V93        V1566   2.088   1_554  T
V94         O825   1.914       .  S
V94         O827   1.889       .  S
V94         V829   2.089       .  T
C95        O1564   1.261   1_554  A
C95         C456   1.471   1_554  S
C96         C440   1.470       .  S
C97        O1562   1.268   1_554  A
C97         C523   1.467       .  S
C98         C632   1.469       .  S
O99         V107   1.914       .  S
O99         C109   1.267       .  A
O100        V107   1.915       .  S
O100        C110   1.267       .  A
O101        V107   1.887       .  S
O101        C111   1.261       .  A
O102        V107   1.886       .  S
O102        C112   1.261       .  A
O103        V108   1.913       .  S
O103        C112   1.266       .  A
O104        V108   1.910       .  S
O104        C111   1.266       .  A
O105        V108   1.888       .  S
O105        C110   1.262       .  A
O106        V108   1.889       .  S
O106        C109   1.261       .  A
V107        V108   2.088       .  T
C109        C459   1.471       .  S
C110        C424   1.472       .  S
C111        C491   1.466       .  S
C112        C555   1.469       .  S
O113        V121   1.914       .  S
O113        C123   1.268       .  A
O114        V121   1.914       .  S
O114        C124   1.266       .  A
O115        V121   1.887       .  S
O115        C125   1.262       .  A
O116        V121   1.889       .  S
O116        C126   1.261       .  A
O117        V122   1.908       .  S
O117        C126   1.266       .  A
O118        V122   1.909       .  S
O118        C125   1.265       .  A
O119        V122   1.889       .  S
O119        C124   1.263       .  A
O120        V122   1.890       .  S
O120        C123   1.262       .  A
V121        V122   2.088       .  T
C123        C408   1.472       .  S
C124        C376   1.472       .  S
C125        C507   1.467       .  S
C126        C395   1.465       .  S
O127        V135   1.914       .  S
O127        C137   1.267       .  A
O128        V135   1.910       .  S
O128        C138   1.266       .  A
O129        V135   1.887       .  S
O129        C139   1.261       .  A
O130        V135   1.889       .  S
O130        C140   1.261       .  A
O131        V136   1.910       .  S
O131        C140   1.266       .  A
O132        V136   1.913       .  S
O132        C139   1.267       .  A
O133        V136   1.889       .  S
O133        C138   1.261       .  A
O134        V136   1.889       .  S
O134        C137   1.261       .  A
V135        V136   2.089       .  T
C137        C411   1.472       .  S
C138        C344   1.466       .  S
C139        C443   1.467       .  S
C140        C360   1.466       .  S
O141        V149   1.911       .  S
O141        C887   1.267       .  A
O142        V149   1.912       .  S
O142        C152   1.266       .  A
O143        V149   1.890       .  S
O143        C153   1.262       .  A
O144        V149   1.893       .  S
O144        C154   1.262       .  A
O145        V150   1.904       .  S
O145       C1626   1.265   1_554  A
O146        V150   1.907       .  S
O146       C1625   1.265   1_554  A
O147        V150   1.890   1_556  S
O147       C1624   1.262       .  A
O148        V150   1.889       .  S
O148        C151   1.262   1_554  A
V149        V886   2.089       .  T
V150       V1621   2.089   1_554  T
C151       O1613   1.266       .  A
C151        C331   1.468   1_556  S
C152        O883   1.262       .  A
C152        C315   1.467       .  S
C153        O882   1.265       .  A
C153        C475   1.466       .  S
C154        O881   1.266       .  A
C154        C392   1.466       .  S
O155        V163   1.906       .  S
O155        C165   1.266       .  A
O156        V163   1.907       .  S
O156        C166   1.265       .  A
O157        V163   1.887       .  S
O157        C167   1.261       .  A
O158        V163   1.890       .  S
O158        C168   1.261       .  A
O159        V164   1.909       .  S
O159        C168   1.267       .  A
O160        V164   1.914       .  S
O160        C167   1.267       .  A
O161        V164   1.887       .  S
O161        C166   1.262       .  A
O162        V164   1.889       .  S
O162        C165   1.261       .  A
V163        V164   2.089       .  T
C165        C328   1.465       .  S
C166        C296   1.465       .  S
C167        C427   1.468       .  S
C168        C363   1.466       .  S
O169        V177   1.907       .  S
O169        C179   1.266       .  A
O170        V177   1.908   1_556  S
O170        C180   1.265   1_556  A
O171        V177   1.891       .  S
O171        C181   1.262       .  A
O172        V177   1.886       .  S
O172        C182   1.261       .  A
O173        V178   1.912       .  S
O173        C182   1.266       .  A
O174        V178   1.905       .  S
O174        C181   1.265       .  A
O175        V178   1.889       .  S
O175        C180   1.262       .  A
O176        V178   1.891       .  S
O176        C179   1.261       .  A
V177        V178   2.089       .  T
C179        C280   1.466       .  S
C180        C699   1.464       .  S
C181        C267   1.465       .  S
C182        C379   1.466       .  S
O183        V191   1.909       .  S
O183        C193   1.267       .  A
O184        V191   1.911       .  S
O184        C194   1.266       .  A
O185        V191   1.888       .  S
O185        C195   1.260       .  A
O186        V191   1.887       .  S
O186        C196   1.262       .  A
O187        V192   1.910       .  S
O187        C196   1.266       .  A
O188        V192   1.905       .  S
O188        C195   1.266       .  A
O189        V192   1.890       .  S
O189        C194   1.262       .  A
O190        V192   1.891       .  S
O190        C193   1.261       .  A
V191        V192   2.089       .  T
C193        C283   1.467       .  S
C194        C603   1.468       .  S
C195        C251   1.462       .  S
C196        C312   1.469       .  S
O197        V205   1.908       .  S
O197        C207   1.266       .  A
O198        V205   1.907       .  S
O198        C208   1.265       .  A
O199        V205   1.887       .  S
O199        C209   1.261       .  A
O200        V205   1.886       .  S
O200        C210   1.262       .  A
O201       V1678   1.911       .  S
O201        C210   1.266       .  A
O202        V206   1.910       .  S
O202        C945   1.266       .  A
O203       V1678   1.891       .  S
O203        C208   1.263       .  A
O204        V206   1.890       .  S
O204        C943   1.261       .  A
V205       V1678   2.089       .  T
V206        O937   1.913       .  S
V206        O939   1.889       .  S
V206        V941   2.088       .  T
C207       O1676   1.261   1_554  A
C207        C232   1.466       .  S
C208        C651   1.467       .  S
C209       O1674   1.266       .  A
C209        C264   1.465       .  S
C210        C347   1.468       .  S
O211        V219   1.906       .  S
O211        C221   1.266       .  A
O212        V219   1.906       .  S
O212        C222   1.264       .  A
O213        V219   1.885       .  S
O213        C223   1.260       .  A
O214        V219   1.883       .  S
O214        C224   1.260       .  A
O215        V220   1.909       .  S
O215        C224   1.266       .  A
O216        V220   1.906       .  S
O216        C223   1.265       .  A
O217        V220   1.895       .  S
O217        C222   1.264       .  A
O218        V220   1.894       .  S
O218        C221   1.262       .  A
V219        V220   2.089       .  T
C221        C235   1.467       .  S
C222        C571   1.469       .  S
C223        C248   1.460       .  S
C224        C299   1.462       .  S
C225        O231   1.317       .  A
C225        C226   1.403       .  A
C225        C966   1.380       .  A
C226        C227   1.401       .  A
C226        H237   1.081       .  S
C227        C236   1.362       .  A
C227        C228   1.380       .  A
C228        O234   1.318       .  A
C228        C965   1.403       .  A
C229        C230   1.402       .  A
C229       C1700   1.404   1_554  A
C229        H238   1.081       .  S
C230        C233   1.363       .  A
C230       C1697   1.380   1_554  A
O231        C968   1.331       .  A
C232       O1703   1.330   1_554  A
C232        C233   1.390       .  A
C233        H239   1.081       .  S
O234        C235   1.331       .  A
C235        C236   1.390       .  A
C236        H240   1.081       .  S
C241        O247   1.313       .  A
C241        C246   1.381       .  A
C241        C242   1.401       .  A
C242        C243   1.399       .  A
C242        H253   1.081       .  S
C243        C252   1.362       .  A
C243        C244   1.380       .  A
C244        O250   1.315       .  A
C244        C245   1.401       .  A
C245        C246   1.400       .  A
C245        H254   1.080       .  S
C246        C249   1.363       .  A
O247        C248   1.329       .  A
C248        C249   1.390       .  A
C249        H255   1.083       .  S
O250        C251   1.330       .  A
C251        C252   1.390       .  A
C252        H256   1.083       .  S
C257        O263   1.319       .  A
C257        C262   1.381       .  A
C257        C258   1.401   1_554  A
C258        C259   1.402   1_556  A
C258        H269   1.080       .  S
C259        C268   1.359       .  A
C259        C260   1.381       .  A
C260        O266   1.319       .  A
C260        C261   1.401       .  A
C261        C262   1.401       .  A
C261        H270   1.081       .  S
C262        C265   1.357       .  A
O263        C264   1.329       .  A
C264        C265   1.391       .  A
C265        H271   1.083       .  S
O266        C267   1.330       .  A
C267        C268   1.391       .  A
C268        H272   1.083   1_554  S
C273        O279   1.317       .  A
C273        C278   1.380       .  A
C273        C274   1.403       .  A
C274        C275   1.401       .  A
C274        H285   1.081       .  S
C275        C284   1.363       .  A
C275        C276   1.380       .  A
C276        O282   1.317       .  A
C276        C277   1.403       .  A
C277        C278   1.401       .  A
C277        H286   1.082       .  S
C278        C281   1.363       .  A
O279        C280   1.331       .  A
C280        C281   1.390       .  A
C281        H287   1.082       .  S
O282        C283   1.331       .  A
C283        C284   1.389       .  A
C284        H288   1.081       .  S
C289        O295   1.322       .  A
C289        C294   1.381       .  A
C289        C290   1.407       .  A
C290        C291   1.406       .  A
C290        H301   1.082       .  S
C291        C300   1.367   1_545  A
C291        C292   1.381       .  A
C292        O298   1.311   1_545  A
C292        C293   1.396       .  A
C293        C294   1.395       .  A
C293        H302   1.082       .  S
C294        C297   1.353       .  A
O295        C296   1.332       .  A
C296        C297   1.387       .  A
C297        H303   1.083       .  S
O298        C299   1.327       .  A
C299        C300   1.393       .  A
C300        H304   1.082       .  S
C305        O311   1.324       .  A
C305        C310   1.380       .  A
C305        C306   1.409       .  A
C306        C307   1.408       .  A
C306        H317   1.082       .  S
C307        C316   1.369       .  A
C307        C308   1.381       .  A
C308        O314   1.313       .  A
C308        C309   1.397       .  A
C309        C310   1.396       .  A
C309        H318   1.082       .  S
C310        C313   1.353       .  A
O311        C312   1.334       .  A
C312        C313   1.388       .  A
C313        H319   1.083       .  S
O314        C315   1.327       .  A
C315        C316   1.395       .  A
C316        H320   1.082       .  S
C321        O327   1.318       .  A
C321        C326   1.381       .  A
C321        C322   1.400       .  A
C322        C323   1.400       .  A
C322        H333   1.082       .  S
C323        C332   1.356       .  A
C323        C324   1.381   1_554  A
C324       O1802   1.321       .  A
C324        C325   1.404       .  A
C325        C326   1.403   1_556  A
C325       H1806   1.082       .  S
C326        C329   1.360       .  A
O327        C328   1.329       .  A
C328        C329   1.392       .  A
C329        H335   1.083   1_554  S
O330       C1060   1.321       .  A
O330       C1067   1.331       .  A
C331       O1802   1.331   1_554  A
C331        C332   1.390       .  A
C332        H336   1.083       .  S
H334       C1061   1.082       .  S
C337        O343   1.313       .  A
C337        C342   1.381       .  A
C337        C338   1.397       .  A
C338        C339   1.396       .  A
C338        H349   1.082       .  S
C339        C348   1.354   1_545  A
C339        C340   1.380       .  A
C340        O346   1.323   1_545  A
C340        C341   1.407       .  A
C341        C342   1.407       .  A
C341        H350   1.081   1_554  S
C342        C345   1.367       .  A
O343        C344   1.328       .  A
C344        C345   1.393       .  A
C345        H351   1.082   1_554  S
O346        C347   1.333       .  A
C347        C348   1.389       .  A
C348        H352   1.083       .  S
C353        O359   1.315       .  A
C353        C358   1.380       .  A
C353        C354   1.402       .  A
C354        C355   1.401       .  A
C354        H365   1.081       .  S
C355        C364   1.363       .  A
C355        C356   1.380       .  A
C356        O362   1.316       .  A
C356        C357   1.403       .  A
C357        C358   1.402       .  A
C357        H366   1.080       .  S
C358        C361   1.365       .  A
O359        C360   1.330       .  A
C360        C361   1.391       .  A
C361        H367   1.083       .  S
O362        C363   1.331       .  A
C363        C364   1.390       .  A
C364        H368   1.082       .  S
C369        O375   1.325       .  A
C369        C374   1.380   1_554  A
C369        C370   1.410       .  A
C370        C371   1.410       .  A
C370        H381   1.082       .  S
C371        C380   1.370       .  A
C371        C372   1.381       .  A
C372        O378   1.312   1_554  A
C372        C373   1.395   1_554  A
C373        C374   1.395       .  A
C373       H1854   1.082       .  S
C374       C1849   1.352       .  A
O375       C1848   1.334       .  A
C376       O1111   1.335       .  A
C376        C377   1.388       .  A
C377       C1110   1.353       .  A
C377        H383   1.083       .  S
O378        C379   1.326   1_556  A
C379        C380   1.395       .  A
C380        H384   1.082       .  S
H382       C1109   1.082       .  S
C385        O391   1.317       .  A
C385        C390   1.380       .  A
C385        C386   1.404       .  A
C386        C387   1.402       .  A
C386        H397   1.080       .  S
C387        C396   1.365       .  A
C387        C388   1.380       .  A
C388        O394   1.315       .  A
C388       C1125   1.401       .  A
C389       C1860   1.401   1_554  A
C389       C1862   1.399   1_554  A
C389        H398   1.080       .  S
C390       C1125   1.399       .  A
C390       C1129   1.361       .  A
O391        C392   1.331       .  A
C392       C1129   1.390       .  A
C393       C1862   1.362   1_554  A
C393       C1864   1.390   1_554  A
C393        H399   1.083       .  S
O394        C395   1.329       .  A
C395        C396   1.391       .  A
C396        H400   1.083       .  S
C401        O407   1.322       .  A
C401        C406   1.381       .  A
C401        C402   1.403       .  A
C402        C403   1.404       .  A
C402        H413   1.082       .  S
C403        C412   1.359       .  A
C403        C404   1.381       .  A
C404        O410   1.322       .  A
C404        C405   1.404       .  A
C405        C406   1.404       .  A
C405        H414   1.082       .  S
C406        C409   1.360       .  A
O407        C408   1.331       .  A
C408        C409   1.393       .  A
C409        H415   1.083       .  S
O410        C411   1.331       .  A
C411        C412   1.392       .  A
C412        H416   1.083       .  S
C417        O423   1.324       .  A
C417        C422   1.380       .  A
C417        C418   1.409       .  A
C418        C419   1.409       .  A
C418        H429   1.082       .  S
C419        C428   1.370   1_455  A
C419        C420   1.381       .  A
C420        O426   1.313   1_455  A
C420        C421   1.397       .  A
C421        C422   1.397       .  A
C421        H430   1.082       .  S
C422        C425   1.355       .  A
O423        C424   1.334       .  A
C424        C425   1.389       .  A
C425        H431   1.083       .  S
O426        C427   1.328       .  A
C427        C428   1.395       .  A
C428        H432   1.082       .  S
C433        O439   1.322       .  A
C433        C438   1.381       .  A
C433        C434   1.408       .  A
C434        C435   1.407       .  A
C434        H445   1.082       .  S
C435        C444   1.368       .  A
C435        C436   1.381       .  A
C436        O442   1.314       .  A
C436        C437   1.398       .  A
C437        C438   1.398       .  A
C437        H446   1.082   1_554  S
C438        C441   1.356       .  A
O439        C440   1.333       .  A
C440        C441   1.389       .  A
C441        H447   1.083   1_554  S
O442        C443   1.328       .  A
C443        C444   1.393       .  A
C444        H448   1.082       .  S
C449        O455   1.322       .  A
C449        C450   1.404       .  A
C449       C1926   1.381   1_554  A
C450       C1923   1.404   1_554  A
C450        H461   1.082       .  S
C451        C460   1.359       .  A
C451        C452   1.381       .  A
C451       C1186   1.404       .  A
C452        O458   1.321       .  A
C452        C453   1.402       .  A
C453        C454   1.403       .  A
C453        H462   1.082       .  S
C454        C457   1.358       .  A
C454       C1185   1.381       .  A
O455        C456   1.331   1_554  A
C456       C1929   1.392       .  A
C457       C1192   1.391       .  A
C457        H463   1.083       .  S
O458        C459   1.331       .  A
C459        C460   1.392       .  A
C460       H1200   1.083       .  S
H464       C1932   1.083   1_554  S
C465        O471   1.322       .  A
C465        C470   1.381       .  A
C465        C466   1.407       .  A
C466        C467   1.407       .  A
C466       H1213   1.081       .  S
C467        C476   1.367   1_455  A
C467        C468   1.381   1_455  A
C468        O474   1.313       .  A
C468        C469   1.397   1_655  A
C469        C470   1.397       .  A
C469        H478   1.082       .  S
C470        C473   1.355       .  A
O471        C472   1.333       .  A
C472        C473   1.389       .  A
C473        H479   1.083       .  S
O474        C475   1.328       .  A
C475        C476   1.394       .  A
C476       H1216   1.082       .  S
H477       C1938   1.082       .  S
H480       C1948   1.082       .  S
C481        O487   1.319       .  A
C481        C486   1.381       .  A
C481        C482   1.401       .  A
C482        C483   1.401       .  A
C482        H493   1.081       .  S
C483        C492   1.357       .  A
C483        C484   1.381       .  A
C484        O490   1.320       .  A
C484        C485   1.402       .  A
C485        C486   1.402       .  A
C485        H494   1.080       .  S
C486        C489   1.359       .  A
O487        C488   1.329       .  A
C488        C489   1.391       .  A
C489        H495   1.083       .  S
O490        C491   1.330       .  A
C491        C492   1.391       .  A
C492        H496   1.083       .  S
C497        O503   1.314       .  A
C497        C502   1.381   1_554  A
C497       C1970   1.399       .  A
C498        C499   1.396       .  A
C498       C1233   1.397       .  A
C498        H509   1.082       .  S
C499        C508   1.354       .  A
C499        C500   1.381       .  A
C500        O506   1.322       .  A
C500       C1237   1.407       .  A
C501        C502   1.405       .  A
C501       C1972   1.406       .  A
C501        H510   1.082       .  S
C502        C505   1.366       .  A
O503        C504   1.328       .  A
C504        C505   1.393   1_554  A
C505        H511   1.082       .  S
O506        C507   1.332       .  A
C507        C508   1.388       .  A
C508        H512   1.083       .  S
C513        O519   1.317       .  A
C513        C518   1.380       .  A
C513        C514   1.403   1_554  A
C514        C515   1.402   1_556  A
C514        H525   1.079       .  S
C515        C524   1.366   1_554  A
C515        C516   1.380       .  A
C516        O522   1.315       .  A
C516        C517   1.402       .  A
C517        C518   1.401       .  A
C517        H526   1.080       .  S
C518        C521   1.364       .  A
O519        C520   1.331       .  A
C520        C521   1.391       .  A
C521        H527   1.083       .  S
O522        C523   1.330       .  A
C523        C524   1.391   1_554  A
C524        H528   1.082       .  S
C529        O535   1.316       .  A
C529        C534   1.380       .  A
C529        C530   1.403       .  A
C530        C531   1.400       .  A
C530        H541   1.081       .  S
C531        C540   1.362       .  A
C531        C532   1.380       .  A
C532        O538   1.319       .  A
C532        C533   1.405       .  A
C533        C534   1.403       .  A
C533        H542   1.081       .  S
C534        C537   1.365       .  A
O535        C536   1.330       .  A
C536        C537   1.391       .  A
C537        H543   1.082       .  S
O538        C539   1.332       .  A
C539        C540   1.389       .  A
C540        H544   1.082       .  S
C545        O551   1.314       .  A
C545        C550   1.381       .  A
C545        C546   1.398   1_565  A
C546        C547   1.397       .  A
C546        H557   1.082       .  S
C547        C556   1.354       .  A
C547        C548   1.380       .  A
C548        O554   1.323       .  A
C548        C549   1.408       .  A
C549        C550   1.407   1_545  A
C549        H558   1.082       .  S
C550        C553   1.368       .  A
O551        C552   1.328       .  A
C552        C553   1.393       .  A
C553        H559   1.082       .  S
O554        C555   1.333       .  A
C555        C556   1.389       .  A
C556        H560   1.083       .  S
C561        O567   1.312       .  A
C561        C566   1.381       .  A
C561        C562   1.397       .  A
C562        C563   1.396   1_455  A
C562        H573   1.083       .  S
C563        C572   1.355       .  A
C563        C564   1.380       .  A
C564        O570   1.323       .  A
C564        C565   1.410   1_655  A
C565        C566   1.409       .  A
C565        H574   1.082       .  S
C566        C569   1.371       .  A
O567        C568   1.328       .  A
C568        C569   1.395       .  A
C569        H575   1.082       .  S
O570        C571   1.334       .  A
C571        C572   1.388       .  A
C572        H576   1.083       .  S
C577        O583   1.313       .  A
C577        C582   1.381       .  A
C577        C578   1.395       .  A
C578        C579   1.395       .  A
C578        H589   1.082       .  S
C579        C588   1.351       .  A
C579        C580   1.380       .  A
C580        O586   1.326       .  A
C580        C581   1.410       .  A
C581        C582   1.410       .  A
C581        H590   1.082       .  S
C582        C585   1.370       .  A
O583        C584   1.327       .  A
C584        C585   1.395       .  A
C585        H591   1.082       .  S
O586        C587   1.335       .  A
C587        C588   1.388       .  A
C588        H592   1.083       .  S
C593       O1335   1.324       .  A
C593        C598   1.380       .  A
C593        C594   1.409       .  A
C594        C595   1.408   1_455  A
C594       H1341   1.082       .  S
C595        C604   1.368       .  A
C595        C596   1.381       .  A
C596        O602   1.314       .  A
C596        C597   1.398   1_655  A
C597        C598   1.397       .  A
C597        H606   1.082       .  S
C598        C601   1.355       .  A
O599       C2065   1.324   1_554  A
O599       C2072   1.333   1_554  A
C600       O1335   1.333       .  A
C600        C601   1.389       .  A
C601        H607   1.083       .  S
O602        C603   1.328       .  A
C603        C604   1.394       .  A
C604        H608   1.082       .  S
H605       C2066   1.082       .  S
C609        O615   1.321   1_554  A
C609        C614   1.381       .  A
C609        C610   1.401   1_554  A
C610        C611   1.403   1_556  A
C610        H621   1.082       .  S
C611        C620   1.356       .  A
C611        C612   1.381       .  A
C612        O618   1.323       .  A
C612        C613   1.404       .  A
C613        C614   1.405       .  A
C613        H622   1.082       .  S
C614        C617   1.359       .  A
O615        C616   1.330   1_556  A
C616        C617   1.393       .  A
C617        H623   1.083       .  S
O618        C619   1.332       .  A
C619        C620   1.391       .  A
C620        H624   1.083   1_554  S
C625        O631   1.312       .  A
C625        C630   1.381       .  A
C625        C626   1.398       .  A
C626        C627   1.396   1_545  A
C626        H637   1.082       .  S
C627        C636   1.355       .  A
C627        C628   1.380       .  A
C628        O634   1.324       .  A
C628        C629   1.410   1_565  A
C629        C630   1.409       .  A
C629        H638   1.082   1_554  S
C630        C633   1.371       .  A
O631        C632   1.328       .  A
C632        C633   1.395       .  A
C633        H639   1.082   1_554  S
O634        C635   1.334       .  A
C635        C636   1.389       .  A
C636        H640   1.083       .  S
C641        O647   1.313       .  A
C641        C646   1.381       .  A
C641        C642   1.398       .  A
C642        C643   1.397       .  A
C642        H653   1.082       .  S
C643        C652   1.356       .  A
C643        C644   1.380       .  A
C644        O650   1.322       .  A
C644        C645   1.407       .  A
C645        C646   1.407       .  A
C645        H654   1.082       .  S
C646        C649   1.369       .  A
O647        C648   1.328       .  A
C648        C649   1.394       .  A
C649        H655   1.082       .  S
O650        C651   1.332       .  A
C651        C652   1.389       .  A
C652       H2128   1.083   1_554  S
H656       C1388   1.083       .  S
C657        O663   1.321       .  A
C657        C662   1.380       .  A
C657        C658   1.403       .  A
C658        C659   1.404       .  A
C658        H669   1.080       .  S
C659        C668   1.360       .  A
C659        C660   1.381       .  A
C660        O666   1.320       .  A
C660        C661   1.401       .  A
C661        C662   1.402       .  A
C661        H670   1.080       .  S
C662        C665   1.358       .  A
O663        C664   1.331       .  A
C664        C665   1.391       .  A
C665        H671   1.083       .  S
O666        C667   1.329       .  A
C667        C668   1.392       .  A
C668        H672   1.083       .  S
C673        O679   1.323       .  A
C673        C674   1.409       .  A
C673       C2150   1.381   1_554  A
C674        C675   1.408       .  A
C674        H685   1.082       .  S
C675        C684   1.369       .  A
C675        C676   1.381       .  A
C676        O682   1.311       .  A
C676       C2149   1.395   1_554  A
C677        C678   1.394       .  A
C677       C1412   1.395       .  A
C677        H686   1.083       .  S
C678        C681   1.351       .  A
C678       C1409   1.381       .  A
O679       C2152   1.333       .  A
C680       O1415   1.333       .  A
C680        C681   1.387       .  A
C681        H687   1.083       .  S
O682        C683   1.327       .  A
C683        C684   1.394       .  A
C684        H688   1.082       .  S
C689        O695   1.324       .  A
C689        C690   1.408       .  A
C689       C1430   1.380       .  A
C690       C1427   1.408       .  A
C690        H701   1.082       .  S
C691        C700   1.367       .  A
C691        C692   1.381   1_556  A
C691       C2162   1.407       .  A
C692        O698   1.312       .  A
C692        C693   1.396       .  A
C693        C694   1.395       .  A
C693        H702   1.082       .  S
C694        C697   1.353       .  A
C694       C2161   1.380   1_554  A
O695        C696   1.333       .  A
C696       C1433   1.389       .  A
C697       C2168   1.388   1_554  A
C697        H703   1.083       .  S
O698        C699   1.327       .  A
C699        C700   1.394   1_554  A
C700       H2176   1.082       .  S
H704       C1436   1.082       .  S
C705       O1447   1.320       .  A
C705        C710   1.381       .  A
C705       C1442   1.401       .  A
C706       C2177   1.401       .  A
C706       C2179   1.402       .  A
C706        H717   1.081       .  S
C707        C716   1.359       .  A
C707        C708   1.381       .  A
C707       C1442   1.402       .  A
C708        O714   1.320       .  A
C708        C709   1.402       .  A
C709        C710   1.403       .  A
C709        H718   1.081       .  S
C710        C713   1.359       .  A
O711       C2177   1.320       .  A
O711       C2184   1.330   1_554  A
C712       O1447   1.330       .  A
C712        C713   1.392       .  A
C713        H719   1.083       .  S
O714        C715   1.330       .  A
C715        C716   1.391       .  A
C716       H1456   1.083       .  S
H720       C2188   1.083       .  S
C721        O727   1.321       .  A
C721        C726   1.381       .  A
C721        C722   1.403       .  A
C722        C723   1.404       .  A
C722        H733   1.082       .  S
C723        C732   1.359       .  A
C723        C724   1.381       .  A
C724        O730   1.321       .  A
C724        C725   1.402       .  A
C725        C726   1.403       .  A
C725        H734   1.082       .  S
C726        C729   1.357       .  A
O727        C728   1.331       .  A
C728        C729   1.391       .  A
C729        H735   1.083       .  S
O730        C731   1.330       .  A
C731        C732   1.392       .  A
C732        H736   1.083       .  S
O737        V745   1.915       .  S
O737        C747   1.267       .  A
O739        V745   1.887       .  S
O739        C749   1.262       .  A
O740        V745   1.888       .  S
O740        C750   1.261       .  A
O741        V746   1.908       .  S
O741        C750   1.266       .  A
O742        V746   1.912       .  S
O742        C749   1.266       .  A
O743        V746   1.887       .  S
O743        C748   1.262       .  A
O744        V746   1.888       .  S
O744        C747   1.261       .  A
V745       O1474   1.912       .  S
V745        V746   2.088       .  T
C747       C1464   1.471       .  S
C748       O1474   1.266       .  A
C748       C1416   1.468       .  S
C749       C1432   1.470       .  S
C750       C1451   1.465       .  S
O751        V759   1.913       .  S
O751        C761   1.267       .  A
O752        V759   1.912       .  S
O752        C762   1.266       .  A
O753        V759   1.886       .  S
O753        C763   1.260       .  A
O754        V759   1.888       .  S
O754        C764   1.261       .  A
O755        V760   1.913       .  S
O755        C764   1.267       .  A
O756        V760   1.914       .  S
O756        C763   1.267       .  A
O757        V760   1.889       .  S
O757        C762   1.262       .  A
O758        V760   1.890       .  S
O758        C761   1.261       .  A
V759        V760   2.088       .  T
C761       C1467   1.471       .  S
C762       C1371   1.470       .  S
C763       C1384   1.466       .  S
C764       C1400   1.470       .  S
O765        V773   1.913       .  S
O765       C1511   1.268       .  A
O766        V773   1.916       .  S
O766        C776   1.267       .  A
O767        V773   1.885       .  S
O767        C777   1.261       .  A
O768        V773   1.887       .  S
O768        C778   1.261       .  A
O769        V774   1.910       .  S
O770        V774   1.914       .  S
O771        V774   1.884       .  S
O772        V774   1.889       .  S
O772        C775   1.261       .  A
V773       V1510   2.088       .  T
C775       C1352   1.472       .  S
C776       O1507   1.262       .  A
C776       C1323   1.470       .  S
C777       O1506   1.266       .  A
C777       C1336   1.468       .  S
C778       O1505   1.266       .  A
C778       C1448   1.466       .  S
O779        V787   1.916       .  S
O779        C789   1.268       .  A
O780        V787   1.913       .  S
O780        C790   1.267       .  A
O781        V787   1.885       .  S
O781        C791   1.261       .  A
O782        V787   1.891       .  S
O782        C792   1.262       .  A
O783        V788   1.912       .  S
O783        C792   1.267       .  A
O784        V788   1.915       .  S
O784        C791   1.267       .  A
O785        V788   1.889       .  S
O785        C790   1.261       .  A
O786        V788   1.888       .  S
O786        C789   1.261       .  A
V787        V788   2.088       .  T
C789       C1355   1.473       .  S
C790       C1288   1.468       .  S
C791       C1304   1.467       .  S
C792       C1403   1.470       .  S
O793        V801   1.903       .  S
O793        C803   1.266       .  A
O794        V801   1.906       .  S
O794        C804   1.265       .  A
O795        V801   1.890       .  S
O795        C805   1.261       .  A
O796        V801   1.884       .  S
O796        C806   1.261       .  A
O797        V802   1.910       .  S
O797        C806   1.266       .  A
O798        V802   1.906       .  S
O798        C805   1.266       .  A
O799        V802   1.892       .  S
O799        C804   1.262       .  A
O800        V802   1.893       .  S
O800        C803   1.261       .  A
V801        V802   2.089       .  T
C803       C1275   1.466       .  S
C804       C1240   1.464       .  S
C805       C1256   1.465       .  S
C806       C1419   1.462       .  S
O807        V815   1.909       .  S
O807        C817   1.266       .  A
O808        V815   1.906       .  S
O808        C818   1.265       .  A
O809        V815   1.890       .  S
O809        C819   1.261       .  A
O810        V815   1.887       .  S
O810        C820   1.262       .  A
O811        V816   1.911       .  S
O811        C820   1.266       .  A
O812        V816   1.906       .  S
O812        C819   1.265       .  A
O813        V816   1.893       .  S
O813        C818   1.263       .  A
O814        V816   1.890       .  S
O814        C817   1.261       .  A
V815        V816   2.089       .  T
C817       C1272   1.466       .  S
C818       C1208   1.468       .  S
C819       C1224   1.464       .  S
C820       C1320   1.466       .  S
O821        V829   1.913       .  S
O821        C831   1.267       .  A
O822        V829   1.911       .  S
O822        C832   1.266       .  A
O823        V829   1.887       .  S
O823        C833   1.260       .  A
O824        V829   1.884       .  S
O824        C834   1.260       .  A
O825        C834   1.267       .  A
O826        V830   1.913       .  S
O826       C1569   1.267       .  A
O827        C832   1.262       .  A
O828        V830   1.893       .  S
O828       C1567   1.262       .  A
V830       O1561   1.915       .  S
V830       O1563   1.889       .  S
V830       V1565   2.089       .  T
C831       C1192   1.471       .  S
C832       C1176   1.469       .  S
C833       C1259   1.465       .  S
C834       C1368   1.466       .  S
O835        V843   1.913       .  S
O835        C845   1.267       .  A
O836        V843   1.913       .  S
O836        C846   1.266       .  A
O837        V843   1.887       .  S
O837        C847   1.261       .  A
O838        V843   1.886       .  S
O838        C848   1.262       .  A
O839        V844   1.913       .  S
O839        C848   1.266       .  A
O840        V844   1.908       .  S
O840        C847   1.266       .  A
O841        V844   1.892       .  S
O841        C846   1.263       .  A
O842        V844   1.894       .  S
O842        C845   1.263       .  A
V843        V844   2.088       .  T
C845       C1195   1.474       .  S
C846       C1160   1.472       .  S
C847       C1227   1.465       .  S
C848       C1291   1.470       .  S
O849        V857   1.914       .  S
O849        C859   1.267       .  A
O850        V857   1.915       .  S
O850        C860   1.266       .  A
O851        V857   1.887       .  S
O851        C861   1.262       .  A
O852        V857   1.888       .  S
O852        C862   1.261       .  A
O853        V858   1.906       .  S
O853        C862   1.265       .  A
O854        V858   1.908       .  S
O854        C861   1.265       .  A
O855        V858   1.889       .  S
O855        C860   1.263       .  A
O856        V858   1.889       .  S
O856        C859   1.262       .  A
V857        V858   2.088       .  T
C859       C1144   1.472       .  S
C860       C1112   1.472       .  S
C861       C1243   1.466       .  S
C862       C1131   1.462       .  S
O863        V871   1.914       .  S
O863        C873   1.268       .  A
O864        V871   1.912       .  S
O864        C874   1.266       .  A
O865        V871   1.885       .  S
O865        C875   1.261       .  A
O866        V871   1.890       .  S
O866        C876   1.261       .  A
O867        V872   1.910       .  S
O867        C876   1.267       .  A
O868        V872   1.914       .  S
O868        C875   1.267       .  A
O869        V872   1.891       .  S
O869        C874   1.262       .  A
O870        V872   1.890       .  S
O870        C873   1.262       .  A
V871        V872   2.088       .  T
C873       C1147   1.472       .  S
C874       C1080   1.469       .  S
C875       C1179   1.467       .  S
C876       C1096   1.466       .  S
O877        V885   1.908       .  S
O877       C1623   1.266       .  A
O878        V885   1.909       .  S
O878        C888   1.265       .  A
O879        V885   1.888       .  S
O879        C889   1.261       .  A
O880        V885   1.891       .  S
O880        C890   1.261       .  A
O881        V886   1.904       .  S
O882        V886   1.908       .  S
O883        V886   1.889       .  S
O884        V886   1.892       .  S
O884        C887   1.262       .  A
V885       V1622   2.089       .  T
C887       C1067   1.471       .  S
C888       O1619   1.262       .  A
C888       C1051   1.465       .  S
C889       O1618   1.266       .  A
C889       C1211   1.465       .  S
C890       O1617   1.266       .  A
C890       C1128   1.464       .  S
O891        V899   1.909       .  S
O891        C901   1.266       .  A
O892        V899   1.907       .  S
O892        C902   1.265       .  A
O893        V899   1.887       .  S
O893        C903   1.261       .  A
O894        V899   1.891       .  S
O894        C904   1.261       .  A
O895        V900   1.911       .  S
O895        C904   1.267       .  A
O896        V900   1.916       .  S
O896        C903   1.267       .  A
O897        V900   1.892       .  S
O897        C902   1.263       .  A
O898        V900   1.892       .  S
O898        C901   1.262       .  A
V899        V900   2.089       .  T
C901       C1064   1.469       .  S
C902       C1032   1.467       .  S
C903       C1163   1.469       .  S
C904       C1099   1.468       .  S
O905        V913   1.907       .  S
O905        C915   1.266       .  A
O906        V913   1.908       .  S
O906        C916   1.266       .  A
O907        V913   1.892       .  S
O907        C917   1.262       .  A
O908        V913   1.886       .  S
O908        C918   1.261       .  A
O909        V914   1.915       .  S
O909        C918   1.266       .  A
O910        V914   1.907       .  S
O910        C917   1.266       .  A
O911        V914   1.892       .  S
O911        C916   1.262       .  A
O912        V914   1.893       .  S
O912        C915   1.261       .  A
V913        V914   2.089       .  T
C915       C1016   1.468       .  S
C916       C1435   1.468       .  S
C917       C1003   1.467       .  S
C918       C1115   1.468       .  S
O919        V927   1.906       .  S
O919        C929   1.266       .  A
O920        V927   1.908       .  S
O920        C930   1.265       .  A
O921        V927   1.887       .  S
O921        C931   1.260       .  A
O922        V927   1.884       .  S
O922        C932   1.262       .  A
O923        V928   1.913       .  S
O923        C932   1.266       .  A
O924        V928   1.907       .  S
O924        C931   1.266       .  A
O925        V928   1.890       .  S
O925        C930   1.262       .  A
O926        V928   1.894       .  S
O926        C929   1.262       .  A
V927        V928   2.089       .  T
C929       C1019   1.468       .  S
C930       C1339   1.465       .  S
C931        C987   1.463       .  S
C932       C1048   1.468       .  S
O933        V941   1.907       .  S
O933        C943   1.266       .  A
O934        V941   1.907       .  S
O934        C944   1.265       .  A
O935        V941   1.889       .  S
O935        C945   1.261       .  A
O936        V941   1.889       .  S
O936        C946   1.262       .  A
O937        C946   1.266       .  A
O938        V942   1.908       .  S
O938       C1681   1.266       .  A
O939        C944   1.262       .  A
O940        V942   1.888       .  S
O940       C1679   1.260       .  A
V942       O1673   1.910       .  S
V942       O1675   1.888       .  S
V942       V1677   2.089       .  T
C943        C968   1.466       .  S
C944       C1387   1.467       .  S
C945       C1000   1.467       .  S
C946       C1083   1.471       .  S
O947        V955   1.906       .  S
O947        C957   1.266       .  A
O948        V955   1.907       .  S
O948        C958   1.265       .  A
O949        V955   1.885       .  S
O949        C959   1.260       .  A
O950        V955   1.883       .  S
O950        C960   1.260       .  A
O951        V956   1.911       .  S
O951        C960   1.266       .  A
O952        V956   1.908       .  S
O952        C959   1.266       .  A
O953        V956   1.891       .  S
O953        C958   1.263       .  A
O954        V956   1.889       .  S
O954        C957   1.261       .  A
V955        V956   2.089       .  T
C957        C971   1.464       .  S
C958       C1307   1.468       .  S
C959        C984   1.461       .  S
C960       C1035   1.464       .  S
C961        O967   1.316       .  A
C961       C1702   1.380       .  A
C961        C962   1.403       .  A
C962        C963   1.400       .  A
C962        H973   1.081       .  S
C963        C972   1.362       .  A
C963        C964   1.381       .  A
C964        O970   1.316       .  A
C964       C1701   1.403       .  A
C965        C966   1.401       .  A
C965        H974   1.081       .  S
C966        C969   1.362       .  A
O967       C1704   1.330       .  A
C968        C969   1.389       .  A
C969        H975   1.081       .  S
O970        C971   1.330       .  A
C971        C972   1.389       .  A
C972        H976   1.081       .  S
C977        O983   1.313       .  A
C977        C982   1.380       .  A
C977        C978   1.399       .  A
C978        C979   1.398       .  A
C978        H989   1.080       .  S
C979        C988   1.361       .  A
C979        C980   1.380       .  A
C980        O986   1.316       .  A
C980        C981   1.404       .  A
C981        C982   1.402       .  A
C981        H990   1.081       .  S
C982        C985   1.364       .  A
O983        C984   1.328       .  A
C984        C985   1.391       .  A
C985        H991   1.082       .  S
O986        C987   1.331       .  A
C987        C988   1.389       .  A
C988        H992   1.083       .  S
C993        O999   1.321       .  A
C993        C998   1.381       .  A
C993        C994   1.403       .  A
C994        C995   1.404       .  A
C994       H1005   1.081       .  S
C995       C1004   1.361       .  A
C995        C996   1.381       .  A
C996       O1002   1.318       .  A
C996        C997   1.400       .  A
C997        C998   1.400       .  A
C997       H1006   1.081       .  S
C998       C1001   1.357       .  A
O999       C1000   1.331       .  A
C1000      C1001   1.390       .  A
C1001      H1007   1.083       .  S
O1002      C1003   1.329       .  A
C1003      C1004   1.393       .  A
C1004      H1008   1.083       .  S
C1009      O1015   1.317       .  A
C1009      C1014   1.380       .  A
C1009      C1010   1.403       .  A
C1010      C1011   1.401       .  A
C1010      H1021   1.081       .  S
C1011      C1020   1.362       .  A
C1011      C1012   1.380       .  A
C1012      O1018   1.318       .  A
C1012      C1013   1.404       .  A
C1013      C1014   1.402       .  A
C1013      H1022   1.081       .  S
C1014      C1017   1.363       .  A
O1015      C1016   1.331       .  A
C1016      C1017   1.390       .  A
C1017      H1023   1.082       .  S
O1018      C1019   1.331       .  A
C1019      C1020   1.390       .  A
C1020      H1024   1.082       .  S
C1025      O1031   1.321       .  A
C1025      C1030   1.381       .  A
C1025      C1026   1.407       .  A
C1026      C1027   1.406       .  A
C1026      H1037   1.082       .  S
C1027      C1036   1.367   1_545  A
C1027      C1028   1.381       .  A
C1028      O1034   1.312   1_545  A
C1028      C1029   1.397       .  A
C1029      C1030   1.396       .  A
C1029      H1038   1.082       .  S
C1030      C1033   1.355       .  A
O1031      C1032   1.332       .  A
C1032      C1033   1.388       .  A
C1033      H1039   1.083       .  S
O1034      C1035   1.328       .  A
C1035      C1036   1.393       .  A
C1036      H1040   1.082       .  S
C1041      O1047   1.325       .  A
C1041      C1046   1.380       .  A
C1041      C1042   1.409       .  A
C1042      C1043   1.409       .  A
C1042      H1053   1.082       .  S
C1043      C1052   1.369       .  A
C1043      C1044   1.381       .  A
C1044      O1050   1.312       .  A
C1044      C1045   1.395       .  A
C1045      C1046   1.394       .  A
C1045      H1054   1.083       .  S
C1046      C1049   1.351       .  A
O1047      C1048   1.334       .  A
C1048      C1049   1.387       .  A
C1049      H1055   1.083       .  S
O1050      C1051   1.326       .  A
C1051      C1052   1.395       .  A
C1052      H1056   1.082       .  S
C1057      O1063   1.321       .  A
C1057      C1062   1.381       .  A
C1057      C1058   1.403       .  A
C1058      C1059   1.403       .  A
C1058      H1069   1.082       .  S
C1059      C1068   1.360       .  A
C1059      C1060   1.381       .  A
C1060      C1061   1.403       .  A
C1061      C1062   1.403       .  A
C1062      C1065   1.359       .  A
O1063      C1064   1.331       .  A
C1064      C1065   1.391       .  A
C1065      H1071   1.083       .  S
O1066      C1796   1.319       .  A
O1066      C1803   1.330       .  A
C1067      C1068   1.392       .  A
C1068      H1072   1.083       .  S
H1070      C1797   1.082       .  S
C1073      O1079   1.314       .  A
C1073      C1078   1.381       .  A
C1073      C1074   1.398       .  A
C1074      C1075   1.397       .  A
C1074      H1085   1.082       .  S
C1075      C1084   1.355   1_545  A
C1075      C1076   1.380       .  A
C1076      O1082   1.324   1_545  A
C1076      C1077   1.409       .  A
C1077      C1078   1.408       .  A
C1077      H1086   1.082       .  S
C1078      C1081   1.369       .  A
O1079      C1080   1.328       .  A
C1080      C1081   1.394       .  A
C1081      H1087   1.082       .  S
O1082      C1083   1.334       .  A
C1083      C1084   1.389       .  A
C1084      H1088   1.083       .  S
C1089      O1095   1.316       .  A
C1089      C1094   1.380       .  A
C1089      C1090   1.403       .  A
C1090      C1091   1.402       .  A
C1090      H1101   1.080       .  S
C1091      C1100   1.365       .  A
C1091      C1092   1.380       .  A
C1092      O1098   1.316       .  A
C1092      C1093   1.404       .  A
C1093      C1094   1.402       .  A
C1093      H1102   1.081       .  S
C1094      C1097   1.365       .  A
O1095      C1096   1.330       .  A
C1096      C1097   1.391       .  A
C1097      H1103   1.082       .  S
O1098      C1099   1.331       .  A
C1099      C1100   1.391       .  A
C1100      H1104   1.082       .  S
C1105      O1111   1.325       .  A
C1105      C1110   1.380       .  A
C1105      C1106   1.411       .  A
C1106      C1107   1.411       .  A
C1106      H1117   1.082       .  S
C1107      C1116   1.372       .  A
C1107      C1108   1.381       .  A
C1108      O1114   1.311       .  A
C1108      C1109   1.395       .  A
C1109      C1110   1.395       .  A
C1112      O1847   1.335       .  A
C1112      C1113   1.388       .  A
C1113      C1846   1.353       .  A
C1113      H1119   1.083       .  S
O1114      C1115   1.326       .  A
C1115      C1116   1.396       .  A
C1116      H1120   1.082       .  S
H1118      C1845   1.082       .  S
C1121      O1127   1.317       .  A
C1121      C1126   1.380       .  A
C1121      C1122   1.404       .  A
C1122      C1123   1.402       .  A
C1122      H1133   1.080       .  S
C1123      C1132   1.365       .  A
C1123      C1124   1.380       .  A
C1124      O1130   1.314       .  A
C1124      C1861   1.399       .  A
C1125      H1134   1.080       .  S
C1126      C1861   1.398       .  A
C1126      C1865   1.361       .  A
O1127      C1128   1.331       .  A
C1128      C1865   1.389       .  A
C1129      H1135   1.083       .  S
O1130      C1131   1.328       .  A
C1131      C1132   1.391       .  A
C1132      H1136   1.083       .  S
C1137      O1143   1.322       .  A
C1137      C1142   1.381       .  A
C1137      C1138   1.404       .  A
C1138      C1139   1.404       .  A
C1138      H1149   1.082       .  S
C1139      C1148   1.360       .  A
C1139      C1140   1.381       .  A
C1140      O1146   1.322       .  A
C1140      C1141   1.403       .  A
C1141      C1142   1.404       .  A
C1141      H1150   1.082       .  S
C1142      C1145   1.359       .  A
O1143      C1144   1.331       .  A
C1144      C1145   1.392       .  A
C1145      H1151   1.083       .  S
O1146      C1147   1.331       .  A
C1147      C1148   1.392       .  A
C1148      H1152   1.083       .  S
C1153      O1159   1.324       .  A
C1153      C1158   1.380       .  A
C1153      C1154   1.410       .  A
C1154      C1155   1.409       .  A
C1154      H1165   1.082       .  S
C1155      C1164   1.371   1_455  A
C1155      C1156   1.381       .  A
C1156      O1162   1.313   1_455  A
C1156      C1157   1.397       .  A
C1157      C1158   1.397       .  A
C1157      H1166   1.082       .  S
C1158      C1161   1.356       .  A
O1159      C1160   1.334       .  A
C1160      C1161   1.389       .  A
C1161      H1167   1.083       .  S
O1162      C1163   1.328       .  A
C1163      C1164   1.395       .  A
C1164      H1168   1.082       .  S
C1169      O1175   1.322       .  A
C1169      C1174   1.381       .  A
C1169      C1170   1.408       .  A
C1170      C1171   1.407       .  A
C1170      H1181   1.082       .  S
C1171      C1180   1.369       .  A
C1171      C1172   1.381       .  A
C1172      O1178   1.313       .  A
C1172      C1173   1.398       .  A
C1173      C1174   1.397       .  A
C1173      H1182   1.083       .  S
C1174      C1177   1.355       .  A
O1175      C1176   1.333       .  A
C1176      C1177   1.389       .  A
C1177      H1183   1.083       .  S
O1178      C1179   1.328       .  A
C1179      C1180   1.394       .  A
C1180      H1184   1.082       .  S
C1185      O1191   1.322       .  A
C1185      C1186   1.404       .  A
C1186      H1197   1.082       .  S
C1187      C1922   1.404       .  A
C1187      C1196   1.360       .  A
C1187      C1188   1.381       .  A
C1188      O1194   1.322       .  A
C1188      C1189   1.404       .  A
C1189      C1190   1.404       .  A
C1189      H1198   1.082       .  S
C1190      C1921   1.381       .  A
C1190      C1193   1.360       .  A
O1191      C1192   1.331       .  A
C1193      C1928   1.392       .  A
C1193      H1199   1.083       .  S
O1194      C1195   1.332       .  A
C1195      C1196   1.392       .  A
C1196      H1936   1.083       .  S
C1201      O1207   1.321       .  A
C1201      C1206   1.381       .  A
C1201      C1202   1.407       .  A
C1202      C1203   1.406       .  A
C1202      H1949   1.082       .  S
C1203      C1212   1.367   1_455  A
C1203      C1204   1.381   1_455  A
C1204      O1210   1.313       .  A
C1204      C1205   1.398   1_655  A
C1205      C1206   1.398       .  A
C1205      H1214   1.082       .  S
C1206      C1209   1.357       .  A
O1207      C1208   1.332       .  A
C1208      C1209   1.389       .  A
C1209      H1215   1.083       .  S
O1210      C1211   1.328       .  A
C1211      C1212   1.393       .  A
C1212      H1952   1.082       .  S
C1217      O1223   1.318       .  A
C1217      C1222   1.381       .  A
C1217      C1218   1.399       .  A
C1218      C1219   1.400       .  A
C1218      H1229   1.080       .  S
C1219      C1228   1.356       .  A
C1219      C1220   1.381       .  A
C1220      O1226   1.320       .  A
C1220      C1221   1.402       .  A
C1221      C1222   1.402       .  A
C1221      H1230   1.081       .  S
C1222      C1225   1.359       .  A
O1223      C1224   1.328       .  A
C1224      C1225   1.391       .  A
C1225      H1231   1.083       .  S
O1226      C1227   1.330       .  A
C1227      C1228   1.390       .  A
C1228      H1232   1.083       .  S
C1233      O1239   1.313       .  A
C1233      C1238   1.381       .  A
C1234      C1969   1.398       .  A
C1234      C1235   1.397       .  A
C1234      H1245   1.082       .  S
C1235      C1244   1.355       .  A
C1235      C1236   1.381       .  A
C1236      O1242   1.321       .  A
C1236      C1973   1.406       .  A
C1237      C1238   1.406       .  A
C1237      H1246   1.082       .  S
C1238      C1241   1.366       .  A
O1239      C1240   1.327       .  A
C1240      C1241   1.393       .  A
C1241      H1247   1.082       .  S
O1242      C1243   1.332       .  A
C1243      C1244   1.389       .  A
C1244      H1248   1.083       .  S
C1249      O1255   1.316       .  A
C1249      C1254   1.380       .  A
C1249      C1250   1.403       .  A
C1250      C1251   1.402       .  A
C1250      H1261   1.080       .  S
C1251      C1260   1.365       .  A
C1251      C1252   1.380       .  A
C1252      O1258   1.314       .  A
C1252      C1253   1.401       .  A
C1253      C1254   1.400       .  A
C1253      H1262   1.079       .  S
C1254      C1257   1.363       .  A
O1255      C1256   1.330       .  A
C1256      C1257   1.390       .  A
C1257      H1263   1.083       .  S
O1258      C1259   1.329       .  A
C1259      C1260   1.391       .  A
C1260      H1264   1.082       .  S
C1265      O1271   1.315       .  A
C1265      C1270   1.381       .  A
C1265      C1266   1.401       .  A
C1266      C1267   1.399       .  A
C1266      H1277   1.081       .  S
C1267      C1276   1.359       .  A
C1267      C1268   1.380       .  A
C1268      O1274   1.319       .  A
C1268      C1269   1.405       .  A
C1269      C1270   1.403       .  A
C1269      H1278   1.081       .  S
C1270      C1273   1.365       .  A
O1271      C1272   1.329       .  A
C1272      C1273   1.391       .  A
C1273      H1279   1.082       .  S
O1274      C1275   1.332       .  A
C1275      C1276   1.388       .  A
C1276      H1280   1.082       .  S
C1281      O1287   1.314       .  A
C1281      C1286   1.381       .  A
C1281      C1282   1.397   1_565  A
C1282      C1283   1.396       .  A
C1282      H1293   1.082       .  S
C1283      C1292   1.353       .  A
C1283      C1284   1.380       .  A
C1284      O1290   1.324       .  A
C1284      C1285   1.408       .  A
C1285      C1286   1.408   1_545  A
C1285      H1294   1.081       .  S
C1286      C1289   1.369       .  A
O1287      C1288   1.328       .  A
C1288      C1289   1.394       .  A
C1289      H1295   1.082       .  S
O1290      C1291   1.333       .  A
C1291      C1292   1.388       .  A
C1292      H1296   1.083       .  S
C1297      O1303   1.312       .  A
C1297      C1302   1.381       .  A
C1297      C1298   1.397       .  A
C1298      C1299   1.396   1_455  A
C1298      H1309   1.083       .  S
C1299      C1308   1.355       .  A
C1299      C1300   1.381       .  A
C1300      O1306   1.322       .  A
C1300      C1301   1.409   1_655  A
C1301      C1302   1.408       .  A
C1301      H1310   1.082       .  S
C1302      C1305   1.370       .  A
O1303      C1304   1.328       .  A
C1304      C1305   1.394       .  A
C1305      H1311   1.082       .  S
O1306      C1307   1.333       .  A
C1307      C1308   1.388       .  A
C1308      H1312   1.083       .  S
C1313      O1319   1.311       .  A
C1313      C1318   1.381       .  A
C1313      C1314   1.395       .  A
C1314      C1315   1.394       .  A
C1314      H1325   1.082       .  S
C1315      C1324   1.351       .  A
C1315      C1316   1.380       .  A
C1316      O1322   1.326       .  A
C1316      C1317   1.410       .  A
C1317      C1318   1.410       .  A
C1317      H1326   1.082       .  S
C1318      C1321   1.370       .  A
O1319      C1320   1.326       .  A
C1320      C1321   1.396       .  A
C1321      H1327   1.082       .  S
O1322      C1323   1.335       .  A
C1323      C1324   1.387       .  A
C1324      H1328   1.083       .  S
C1329      O2071   1.323       .  A
C1329      C1334   1.381       .  A
C1329      C1330   1.408       .  A
C1330      C1331   1.407   1_455  A
C1330      H2077   1.082       .  S
C1331      C1340   1.367       .  A
C1331      C1332   1.381       .  A
C1332      O1338   1.313       .  A
C1332      C1333   1.397   1_655  A
C1333      C1334   1.396       .  A
C1333      H1342   1.082       .  S
C1334      C1337   1.354       .  A
C1336      O2071   1.333       .  A
C1336      C1337   1.389       .  A
C1337      H1343   1.083       .  S
O1338      C1339   1.327       .  A
C1339      C1340   1.393       .  A
C1340      H1344   1.082       .  S
C1345      O1351   1.321       .  A
C1345      C1350   1.381       .  A
C1345      C1346   1.402       .  A
C1346      C1347   1.403       .  A
C1346      H1357   1.082       .  S
C1347      C1356   1.357       .  A
C1347      C1348   1.381       .  A
C1348      O1354   1.323       .  A
C1348      C1349   1.405       .  A
C1349      C1350   1.405       .  A
C1349      H1358   1.082       .  S
C1350      C1353   1.360       .  A
O1351      C1352   1.330       .  A
C1352      C1353   1.393       .  A
C1353      H1359   1.083       .  S
O1354      C1355   1.332       .  A
C1355      C1356   1.392       .  A
C1356      H1360   1.083       .  S
C1361      O1367   1.312       .  A
C1361      C1366   1.381       .  A
C1361      C1362   1.397       .  A
C1362      C1363   1.396       .  A
C1362      H1373   1.082       .  S
C1363      C1372   1.355   1_545  A
C1363      C1364   1.381   1_545  A
C1364      O1370   1.323       .  A
C1364      C1365   1.408   1_565  A
C1365      C1366   1.408       .  A
C1365      H1374   1.082       .  S
C1366      C1369   1.369       .  A
O1367      C1368   1.328       .  A
C1368      C1369   1.394       .  A
C1369      H1375   1.082       .  S
O1370      C1371   1.333       .  A
C1371      C1372   1.389       .  A
C1372      H1376   1.083       .  S
C1377      O1383   1.313       .  A
C1377      C1382   1.381       .  A
C1377      C1378   1.397       .  A
C1378      C1379   1.396       .  A
C1378      H1389   1.082       .  S
C1379      C1388   1.355       .  A
C1379      C1380   1.381       .  A
C1380      O1386   1.322       .  A
C1380      C1381   1.407       .  A
C1381      C1382   1.407       .  A
C1381      H1390   1.082       .  S
C1382      C1385   1.368       .  A
O1383      C1384   1.328       .  A
C1384      C1385   1.393       .  A
C1385      H1391   1.082       .  S
O1386      C1387   1.332       .  A
C1387      C1388   1.388       .  A
H1392      C2124   1.083       .  S
C1393      O1399   1.322       .  A
C1393      C1398   1.380       .  A
C1393      C1394   1.403       .  A
C1394      C1395   1.404       .  A
C1394      H1405   1.079       .  S
C1395      C1404   1.360       .  A
C1395      C1396   1.380       .  A
C1396      O1402   1.321       .  A
C1396      C1397   1.402       .  A
C1397      C1398   1.402       .  A
C1397      H1406   1.080       .  S
C1398      C1401   1.358       .  A
O1399      C1400   1.331       .  A
C1400      C1401   1.392       .  A
C1401      H1407   1.083       .  S
O1402      C1403   1.330       .  A
C1403      C1404   1.392       .  A
C1404      H1408   1.083       .  S
C1409      O1415   1.323       .  A
C1409      C1410   1.408       .  A
C1410      C1411   1.407       .  A
C1410      H1421   1.082       .  S
C1411      C1420   1.368       .  A
C1411      C1412   1.381       .  A
C1412      O1418   1.311       .  A
C1413      C2148   1.396       .  A
C1413      C1414   1.395       .  A
C1413      H1422   1.082       .  S
C1414      C2145   1.381       .  A
C1414      C1417   1.353       .  A
C1416      O2151   1.333       .  A
C1416      C1417   1.388       .  A
C1417      H1423   1.083       .  S
O1418      C1419   1.326       .  A
C1419      C1420   1.394       .  A
C1420      H1424   1.082       .  S
C1425      O1431   1.323       .  A
C1425      C2166   1.380       .  A
C1425      C1426   1.408       .  A
C1426      C2163   1.407       .  A
C1426      H1437   1.082       .  S
C1427      C1436   1.367       .  A
C1427      C1428   1.381       .  A
C1428      O1434   1.315       .  A
C1428      C1429   1.398       .  A
C1429      C1430   1.397       .  A
C1429      H1438   1.082       .  S
C1430      C1433   1.355       .  A
O1431      C1432   1.333       .  A
C1432      C2169   1.389       .  A
C1433      H1439   1.083       .  S
O1434      C1435   1.328       .  A
C1435      C1436   1.394       .  A
H1440      C2172   1.082       .  S
C1441      O2183   1.320       .  A
C1441      C1446   1.381       .  A
C1441      C2178   1.401       .  A
C1442      H1453   1.080       .  S
C1443      C2178   1.402       .  A
C1443      C1452   1.357       .  A
C1443      C1444   1.381       .  A
C1444      O1450   1.320       .  A
C1444      C1445   1.401       .  A
C1445      C1446   1.402       .  A
C1445      H1454   1.080       .  S
C1446      C1449   1.357       .  A
C1448      O2183   1.330       .  A
C1448      C1449   1.391       .  A
C1449      H1455   1.083       .  S
O1450      C1451   1.329       .  A
C1451      C1452   1.391       .  A
C1452      H2192   1.083       .  S
C1457      O1463   1.323       .  A
C1457      C1462   1.381       .  A
C1457      C1458   1.404       .  A
C1458      C1459   1.404       .  A
C1458      H1469   1.082       .  S
C1459      C1468   1.359       .  A
C1459      C1460   1.381       .  A
C1460      O1466   1.321       .  A
C1460      C1461   1.402       .  A
C1461      C1462   1.403       .  A
C1461      H1470   1.082       .  S
C1462      C1465   1.357       .  A
O1463      C1464   1.331       .  A
C1464      C1465   1.391       .  A
C1465      H1471   1.083       .  S
O1466      C1467   1.330       .  A
C1467      C1468   1.392       .  A
C1468      H1472   1.083       .  S
O1473      V1481   1.914       .  S
O1473      C1483   1.267   1_554  A
O1475      V1481   1.885       .  S
O1475      C1485   1.262   1_554  A
O1476      V1481   1.888       .  S
O1476      C1486   1.261   1_554  A
O1477      V1482   1.908       .  S
O1477      C1486   1.266       .  A
O1478      V1482   1.911       .  S
O1478      C1485   1.266       .  A
O1479      V1482   1.886       .  S
O1479      C1484   1.262   1_556  A
O1480      V1482   1.887       .  S
O1480      C1483   1.261       .  A
V1481      V1482   2.089   1_554  T
C1483      C2200   1.470       .  S
C1484      C2152   1.467       .  S
C1485      C2168   1.467       .  S
C1486      C2187   1.465       .  S
O1487      V1495   1.912       .  S
O1487      C1497   1.267       .  A
O1488      V1495   1.910       .  S
O1488      C1498   1.266       .  A
O1489      V1495   1.885       .  S
O1489      C1499   1.260       .  A
O1490      V1495   1.888       .  S
O1490      C1500   1.261       .  A
O1491      V1496   1.912       .  S
O1491      C1500   1.267       .  A
O1492      V1496   1.913       .  S
O1492      C1499   1.267       .  A
O1493      V1496   1.889       .  S
O1493      C1498   1.262       .  A
O1494      V1496   1.889       .  S
O1494      C1497   1.262       .  A
V1495      V1496   2.089       .  T
C1497      C2203   1.470       .  S
C1498      C2107   1.469       .  S
C1499      C2120   1.466       .  S
C1500      C2136   1.470       .  S
O1501      V1509   1.916       .  S
O1502      V1509   1.917       .  S
O1502      C1512   1.267       .  A
O1503      V1509   1.885       .  S
O1503      C1513   1.261       .  A
O1504      V1509   1.887       .  S
O1504      C1514   1.261       .  A
O1505      V1510   1.909       .  S
O1506      V1510   1.912       .  S
O1507      V1510   1.884       .  S
O1508      V1510   1.888       .  S
O1508      C1511   1.261       .  A
C1511      C2088   1.470       .  S
C1512      C2059   1.470       .  S
C1513      C2072   1.469       .  S
C1514      C2184   1.467       .  S
O1515      V1523   1.916       .  S
O1515      C1525   1.268       .  A
O1516      V1523   1.912       .  S
O1516      C1526   1.267       .  A
O1517      V1523   1.884       .  S
O1517      C1527   1.260       .  A
O1518      V1523   1.890       .  S
O1518      C1528   1.261       .  A
O1519      V1524   1.914       .  S
O1519      C1528   1.268       .  A
O1520      V1524   1.919       .  S
O1520      C1527   1.268       .  A
O1521      V1524   1.888       .  S
O1521      C1526   1.261       .  A
O1522      V1524   1.887       .  S
O1522      C1525   1.261       .  A
V1523      V1524   2.088       .  T
C1525      C2091   1.471       .  S
C1526      C2024   1.467       .  S
C1527      C2040   1.470       .  S
C1528      C2139   1.470       .  S
O1529      V1537   1.905       .  S
O1529      C1539   1.266       .  A
O1530      V1537   1.905       .  S
O1530      C1540   1.265       .  A
O1531      V1537   1.890       .  S
O1531      C1541   1.261       .  A
O1532      V1537   1.885       .  S
O1532      C1542   1.261       .  A
O1533      V1538   1.912       .  S
O1533      C1542   1.266       .  A
O1534      V1538   1.908       .  S
O1534      C1541   1.266       .  A
O1535      V1538   1.892       .  S
O1535      C1540   1.262       .  A
O1536      V1538   1.893       .  S
O1536      C1539   1.261       .  A
V1537      V1538   2.089       .  T
C1539      C2011   1.466       .  S
C1540      C1976   1.465       .  S
C1541      C1992   1.465       .  S
C1542      C2155   1.465       .  S
O1543      V1551   1.908       .  S
O1543      C1553   1.266       .  A
O1544      V1551   1.906       .  S
O1544      C1554   1.264       .  A
O1545      V1551   1.891       .  S
O1545      C1555   1.262       .  A
O1546      V1551   1.888       .  S
O1546      C1556   1.262       .  A
O1547      V1552   1.911       .  S
O1547      C1556   1.266       .  A
O1548      V1552   1.907       .  S
O1548      C1555   1.266       .  A
O1549      V1552   1.890       .  S
O1549      C1554   1.263       .  A
O1550      V1552   1.890       .  S
O1550      C1553   1.261       .  A
V1551      V1552   2.089       .  T
C1553      C2008   1.466       .  S
C1554      C1944   1.466       .  S
C1555      C1960   1.466       .  S
C1556      C2056   1.466       .  S
O1557      V1565   1.913       .  S
O1557      C1567   1.267       .  A
O1558      V1565   1.910       .  S
O1558      C1568   1.266       .  A
O1559      V1565   1.885       .  S
O1559      C1569   1.260       .  A
O1560      V1565   1.883       .  S
O1560      C1570   1.260       .  A
O1561      C1570   1.267       .  A
O1562      V1566   1.914       .  S
O1563      C1568   1.262       .  A
O1564      V1566   1.888       .  S
C1567      C1928   1.473       .  S
C1568      C1912   1.468       .  S
C1569      C1995   1.466       .  S
C1570      C2104   1.466       .  S
O1571      V1579   1.914       .  S
O1571      C1581   1.267       .  A
O1572      V1579   1.916       .  S
O1572      C1582   1.267       .  A
O1573      V1579   1.889       .  S
O1573      C1583   1.261       .  A
O1574      V1579   1.887       .  S
O1574      C1584   1.262       .  A
O1575      V1580   1.913       .  S
O1575      C1584   1.266       .  A
O1576      V1580   1.909       .  S
O1576      C1583   1.266       .  A
O1577      V1580   1.888       .  S
O1577      C1582   1.262       .  A
O1578      V1580   1.889       .  S
O1578      C1581   1.261       .  A
V1579      V1580   2.088       .  T
C1581      C1931   1.471       .  S
C1582      C1896   1.473       .  S
C1583      C1963   1.467       .  S
C1584      C2027   1.470       .  S
O1585      V1593   1.913   1_556  S
O1585      C1595   1.268       .  A
O1586      V1593   1.914       .  S
O1586      C1596   1.266   1_554  A
O1587      V1593   1.886       .  S
O1587      C1597   1.261   1_554  A
O1588      V1593   1.887       .  S
O1588      C1598   1.260   1_554  A
O1589      V1594   1.909       .  S
O1589      C1598   1.266       .  A
O1590      V1594   1.910       .  S
O1590      C1597   1.266       .  A
O1591      V1594   1.887       .  S
O1591      C1596   1.262       .  A
O1592      V1594   1.889       .  S
O1592      C1595   1.261       .  A
V1593      V1594   2.088   1_554  T
C1595      C1880   1.471       .  S
C1596      C1848   1.470   1_556  S
C1597      C1979   1.467       .  S
C1598      C1867   1.463       .  S
O1599      V1607   1.914       .  S
O1599      C1609   1.267       .  A
O1600      V1607   1.910       .  S
O1600      C1610   1.266       .  A
O1601      V1607   1.885       .  S
O1601      C1611   1.261       .  A
O1602      V1607   1.889       .  S
O1602      C1612   1.261       .  A
O1603      V1608   1.910       .  S
O1603      C1612   1.267       .  A
O1604      V1608   1.913       .  S
O1604      C1611   1.267       .  A
O1605      V1608   1.888       .  S
O1605      C1610   1.261       .  A
O1606      V1608   1.888       .  S
O1606      C1609   1.261       .  A
V1607      V1608   2.089       .  T
C1609      C1883   1.471       .  S
C1610      C1816   1.465       .  S
C1611      C1915   1.466       .  S
C1612      C1832   1.466       .  S
O1613      V1621   1.910       .  S
O1614      V1621   1.908       .  S
O1614      C1624   1.266       .  A
O1615      V1621   1.888       .  S
O1615      C1625   1.261       .  A
O1616      V1621   1.891       .  S
O1616      C1626   1.261       .  A
O1617      V1622   1.904       .  S
O1618      V1622   1.909       .  S
O1619      V1622   1.889       .  S
O1620      V1622   1.891       .  S
O1620      C1623   1.262       .  A
C1623      C1803   1.468       .  S
C1624      C1787   1.465       .  S
C1625      C1947   1.464       .  S
C1626      C1864   1.463       .  S
O1627      V1635   1.907       .  S
O1627      C1637   1.265       .  A
O1628      V1635   1.906       .  S
O1628      C1638   1.264       .  A
O1629      V1635   1.890       .  S
O1629      C1639   1.262       .  A
O1630      V1635   1.893       .  S
O1630      C1640   1.262       .  A
O1631      V1636   1.909       .  S
O1631      C1640   1.267       .  A
O1632      V1636   1.913       .  S
O1632      C1639   1.266       .  A
O1633      V1636   1.891       .  S
O1633      C1638   1.263       .  A
O1634      V1636   1.891       .  S
O1634      C1637   1.262       .  A
V1635      V1636   2.089       .  T
C1637      C1800   1.467       .  S
C1638      C1768   1.467       .  S
C1639      C1899   1.470       .  S
C1640      C1835   1.469       .  S
O1641      V1649   1.909       .  S
O1641      C1651   1.267       .  A
O1642      V1649   1.909       .  S
O1642      C1652   1.266       .  A
O1643      V1649   1.892       .  S
O1643      C1653   1.262       .  A
O1644      V1649   1.887       .  S
O1644      C1654   1.262       .  A
O1645      V1650   1.914       .  S
O1645      C1654   1.266       .  A
O1646      V1650   1.905       .  S
O1646      C1653   1.265       .  A
O1647      V1650   1.892       .  S
O1647      C1652   1.262       .  A
O1648      V1650   1.894       .  S
O1648      C1651   1.262       .  A
V1649      V1650   2.089       .  T
C1651      C1752   1.469       .  S
C1652      C2171   1.467       .  S
C1653      C1739   1.466       .  S
C1654      C1851   1.468       .  S
O1655      V1663   1.908       .  S
O1655      C1665   1.267       .  A
O1656      V1663   1.910       .  S
O1656      C1666   1.266       .  A
O1657      V1663   1.886       .  S
O1657      C1667   1.260       .  A
O1658      V1663   1.885       .  S
O1658      C1668   1.261       .  A
O1659      V1664   1.912       .  S
O1659      C1668   1.266       .  A
O1660      V1664   1.909       .  S
O1660      C1667   1.266       .  A
O1661      V1664   1.889       .  S
O1661      C1666   1.262       .  A
O1662      V1664   1.893       .  S
O1662      C1665   1.261       .  A
V1663      V1664   2.089       .  T
C1665      C1755   1.469       .  S
C1666      C2075   1.466       .  S
C1667      C1723   1.464       .  S
C1668      C1784   1.468       .  S
O1669      V1677   1.908       .  S
O1669      C1679   1.267       .  A
O1670      V1677   1.908       .  S
O1670      C1680   1.265       .  A
O1671      V1677   1.888       .  S
O1671      C1681   1.261       .  A
O1672      V1677   1.886       .  S
O1672      C1682   1.262       .  A
O1673      C1682   1.266       .  A
O1674      V1678   1.908       .  S
O1675      C1680   1.262       .  A
O1676      V1678   1.890   1_556  S
C1679      C1704   1.464       .  S
C1680      C2123   1.466       .  S
C1681      C1736   1.465       .  S
C1682      C1819   1.467       .  S
O1683      V1691   1.906       .  S
O1683      C1693   1.266       .  A
O1684      V1691   1.907       .  S
O1684      C1694   1.265       .  A
O1685      V1691   1.885       .  S
O1685      C1695   1.260       .  A
O1686      V1691   1.884       .  S
O1686      C1696   1.260       .  A
O1687      V1692   1.912       .  S
O1687      C1696   1.267       .  A
O1688      V1692   1.908       .  S
O1688      C1695   1.266       .  A
O1689      V1692   1.895       .  S
O1689      C1694   1.264       .  A
O1690      V1692   1.894       .  S
O1690      C1693   1.261       .  A
V1691      V1692   2.089       .  T
C1693      C1707   1.467       .  S
C1694      C2043   1.471       .  S
C1695      C1720   1.462       .  S
C1696      C1771   1.465       .  S
C1697      O1703   1.316       .  A
C1697      C1698   1.402       .  A
C1698      C1699   1.400       .  A
C1698      H1709   1.081       .  S
C1699      C1708   1.361       .  A
C1699      C1700   1.380       .  A
C1700      O1706   1.318   1_556  A
C1701      C1702   1.400       .  A
C1701      H1710   1.081       .  S
C1702      C1705   1.363       .  A
C1704      C1705   1.389       .  A
C1705      H1711   1.081       .  S
O1706      C1707   1.331   1_554  A
C1707      C1708   1.389       .  A
C1708      H1712   1.081       .  S
C1713      O1719   1.314       .  A
C1713      C1718   1.381       .  A
C1713      C1714   1.402       .  A
C1714      C1715   1.399       .  A
C1714      H1725   1.081       .  S
C1715      C1724   1.363       .  A
C1715      C1716   1.380       .  A
C1716      O1722   1.315       .  A
C1716      C1717   1.403       .  A
C1717      C1718   1.400       .  A
C1717      H1726   1.081   1_556  S
C1718      C1721   1.364       .  A
O1719      C1720   1.329       .  A
C1720      C1721   1.390       .  A
C1721      H1727   1.083   1_556  S
O1722      C1723   1.330       .  A
C1723      C1724   1.390       .  A
C1724      H1728   1.083       .  S
C1729      O1735   1.320       .  A
C1729      C1734   1.381       .  A
C1729      C1730   1.402       .  A
C1730      C1731   1.403       .  A
C1730      H1741   1.080       .  S
C1731      C1740   1.360       .  A
C1731      C1732   1.381       .  A
C1732      O1738   1.318       .  A
C1732      C1733   1.400       .  A
C1733      C1734   1.400       .  A
C1733      H1742   1.080       .  S
C1734      C1737   1.357       .  A
O1735      C1736   1.330       .  A
C1736      C1737   1.390       .  A
C1737      H1743   1.083       .  S
O1738      C1739   1.329       .  A
C1739      C1740   1.392       .  A
C1740      H1744   1.083       .  S
C1745      O1751   1.318       .  A
C1745      C1750   1.380       .  A
C1745      C1746   1.403       .  A
C1746      C1747   1.401       .  A
C1746      H1757   1.081       .  S
C1747      C1756   1.363       .  A
C1747      C1748   1.380       .  A
C1748      O1754   1.318       .  A
C1748      C1749   1.405       .  A
C1749      C1750   1.403       .  A
C1749      H1758   1.081       .  S
C1750      C1753   1.364       .  A
O1751      C1752   1.331       .  A
C1752      C1753   1.391       .  A
C1753      H1759   1.082       .  S
O1754      C1755   1.331       .  A
C1755      C1756   1.390       .  A
C1756      H1760   1.082       .  S
C1761      O1767   1.321       .  A
C1761      C1766   1.381       .  A
C1761      C1762   1.407       .  A
C1762      C1763   1.406       .  A
C1762      H1773   1.082       .  S
C1763      C1772   1.368   1_545  A
C1763      C1764   1.381       .  A
C1764      O1770   1.312   1_545  A
C1764      C1765   1.398       .  A
C1765      C1766   1.396       .  A
C1765      H1774   1.083       .  S
C1766      C1769   1.355       .  A
O1767      C1768   1.332       .  A
C1768      C1769   1.388       .  A
C1769      H1775   1.083       .  S
O1770      C1771   1.328       .  A
C1771      C1772   1.393       .  A
C1772      H1776   1.082       .  S
C1777      O1783   1.323       .  A
C1777      C1782   1.381       .  A
C1777      C1778   1.407       .  A
C1778      C1779   1.407       .  A
C1778      H1789   1.082       .  S
C1779      C1788   1.367       .  A
C1779      C1780   1.381       .  A
C1780      O1786   1.314       .  A
C1780      C1781   1.397       .  A
C1781      C1782   1.397       .  A
C1781      H1790   1.082   1_556  S
C1782      C1785   1.354       .  A
O1783      C1784   1.333       .  A
C1784      C1785   1.389       .  A
C1785      H1791   1.083   1_556  S
O1786      C1787   1.328       .  A
C1787      C1788   1.393       .  A
C1788      H1792   1.082       .  S
C1793      O1799   1.320       .  A
C1793      C1798   1.381       .  A
C1793      C1794   1.403       .  A
C1794      C1795   1.402       .  A
C1794      H1805   1.082       .  S
C1795      C1804   1.359       .  A
C1795      C1796   1.381       .  A
C1796      C1797   1.402       .  A
C1797      C1798   1.401       .  A
C1798      C1801   1.358       .  A
O1799      C1800   1.331       .  A
C1800      C1801   1.391       .  A
C1801      H1807   1.083       .  S
C1803      C1804   1.392       .  A
C1804      H1808   1.083       .  S
C1809      O1815   1.313       .  A
C1809      C1814   1.381       .  A
C1809      C1810   1.397       .  A
C1810      C1811   1.396       .  A
C1810      H1821   1.081       .  S
C1811      C1820   1.354   1_545  A
C1811      C1812   1.380       .  A
C1812      O1818   1.322   1_545  A
C1812      C1813   1.408       .  A
C1813      C1814   1.407       .  A
C1813      H1822   1.082       .  S
C1814      C1817   1.367       .  A
O1815      C1816   1.328       .  A
C1816      C1817   1.393       .  A
C1817      H1823   1.082       .  S
O1818      C1819   1.333       .  A
C1819      C1820   1.388       .  A
C1820      H1824   1.083       .  S
C1825      O1831   1.316       .  A
C1825      C1830   1.380       .  A
C1825      C1826   1.403       .  A
C1826      C1827   1.402       .  A
C1826      H1837   1.081       .  S
C1827      C1836   1.364       .  A
C1827      C1828   1.380       .  A
C1828      O1834   1.317       .  A
C1828      C1829   1.404       .  A
C1829      C1830   1.402       .  A
C1829      H1838   1.081       .  S
C1830      C1833   1.365       .  A
O1831      C1832   1.330       .  A
C1832      C1833   1.391       .  A
C1833      H1839   1.082       .  S
O1834      C1835   1.331       .  A
C1835      C1836   1.391       .  A
C1836      H1840   1.083       .  S
C1841      O1847   1.325       .  A
C1841      C1846   1.380       .  A
C1841      C1842   1.411       .  A
C1842      C1843   1.410       .  A
C1842      H1853   1.082       .  S
C1843      C1852   1.371       .  A
C1843      C1844   1.381       .  A
C1844      O1850   1.312       .  A
C1844      C1845   1.396       .  A
C1845      C1846   1.395       .  A
C1848      C1849   1.388   1_554  A
C1849      H1855   1.083       .  S
O1850      C1851   1.327       .  A
C1851      C1852   1.396       .  A
C1852      H1856   1.082       .  S
C1857      O1863   1.316       .  A
C1857      C1862   1.380       .  A
C1857      C1858   1.402       .  A
C1858      C1859   1.401       .  A
C1858      H1869   1.079       .  S
C1859      C1868   1.365       .  A
C1859      C1860   1.380       .  A
C1860      O1866   1.314   1_556  A
C1861      H1870   1.079       .  S
O1863      C1864   1.330       .  A
C1865      H1871   1.083       .  S
O1866      C1867   1.329   1_554  A
C1867      C1868   1.391       .  A
C1868      H1872   1.083       .  S
C1873      O1879   1.321       .  A
C1873      C1878   1.381       .  A
C1873      C1874   1.402       .  A
C1874      C1875   1.403       .  A
C1874      H1885   1.082       .  S
C1875      C1884   1.358       .  A
C1875      C1876   1.381       .  A
C1876      O1882   1.322       .  A
C1876      C1877   1.404       .  A
C1877      C1878   1.404       .  A
C1877      H1886   1.082       .  S
C1878      C1881   1.359       .  A
O1879      C1880   1.330       .  A
C1880      C1881   1.393       .  A
C1881      H1887   1.083       .  S
O1882      C1883   1.331       .  A
C1883      C1884   1.392       .  A
C1884      H1888   1.083       .  S
C1889      O1895   1.325       .  A
C1889      C1894   1.380       .  A
C1889      C1890   1.409       .  A
C1890      C1891   1.410       .  A
C1890      H1901   1.081       .  S
C1891      C1900   1.370   1_455  A
C1891      C1892   1.381       .  A
C1892      O1898   1.314   1_455  A
C1892      C1893   1.397       .  A
C1893      C1894   1.397       .  A
C1893      H1902   1.082       .  S
C1894      C1897   1.354       .  A
O1895      C1896   1.334       .  A
C1896      C1897   1.389       .  A
C1897      H1903   1.083       .  S
O1898      C1899   1.328       .  A
C1899      C1900   1.395       .  A
C1900      H1904   1.082       .  S
C1905      O1911   1.322       .  A
C1905      C1910   1.381       .  A
C1905      C1906   1.408       .  A
C1906      C1907   1.407       .  A
C1906      H1917   1.082       .  S
C1907      C1916   1.368       .  A
C1907      C1908   1.381       .  A
C1908      O1914   1.313       .  A
C1908      C1909   1.397       .  A
C1909      C1910   1.397       .  A
C1909      H1918   1.082       .  S
C1910      C1913   1.355       .  A
O1911      C1912   1.333       .  A
C1912      C1913   1.389       .  A
C1913      H1919   1.083       .  S
O1914      C1915   1.328       .  A
C1915      C1916   1.393       .  A
C1916      H1920   1.082       .  S
C1921      O1927   1.322       .  A
C1921      C1922   1.404       .  A
C1922      H1933   1.082       .  S
C1923      C1932   1.359       .  A
C1923      C1924   1.381       .  A
C1924      O1930   1.321       .  A
C1924      C1925   1.402       .  A
C1925      C1926   1.403       .  A
C1925      H1934   1.082       .  S
C1926      C1929   1.358       .  A
O1927      C1928   1.331       .  A
C1929      H1935   1.083       .  S
O1930      C1931   1.330       .  A
C1931      C1932   1.393       .  A
C1937      O1943   1.321       .  A
C1937      C1942   1.381       .  A
C1937      C1938   1.407   1_556  A
C1938      C1939   1.406   1_554  A
C1939      C1948   1.367   1_456  A
C1939      C1940   1.381   1_455  A
C1940      O1946   1.313       .  A
C1940      C1941   1.397   1_655  A
C1941      C1942   1.396       .  A
C1941      H1950   1.082       .  S
C1942      C1945   1.355       .  A
O1943      C1944   1.332       .  A
C1944      C1945   1.388       .  A
C1945      H1951   1.083       .  S
O1946      C1947   1.327       .  A
C1947      C1948   1.393   1_556  A
C1953      O1959   1.319       .  A
C1953      C1958   1.381       .  A
C1953      C1954   1.401       .  A
C1954      C1955   1.401       .  A
C1954      H1965   1.081       .  S
C1955      C1964   1.358       .  A
C1955      C1956   1.381       .  A
C1956      O1962   1.320       .  A
C1956      C1957   1.402       .  A
C1957      C1958   1.403       .  A
C1957      H1966   1.081       .  S
C1958      C1961   1.360       .  A
O1959      C1960   1.329       .  A
C1960      C1961   1.392       .  A
C1961      H1967   1.083       .  S
O1962      C1963   1.330       .  A
C1963      C1964   1.391       .  A
C1964      H1968   1.083       .  S
C1969      O1975   1.314       .  A
C1969      C1974   1.381       .  A
C1970      C1971   1.398       .  A
C1970      H1981   1.082       .  S
C1971      C1980   1.355       .  A
C1971      C1972   1.381   1_554  A
C1972      O1978   1.321       .  A
C1973      C1974   1.405       .  A
C1973      H1982   1.082       .  S
C1974      C1977   1.366       .  A
O1975      C1976   1.328       .  A
C1976      C1977   1.393       .  A
C1977      H1983   1.082       .  S
O1978      C1979   1.331       .  A
C1979      C1980   1.389   1_556  A
C1980      H1984   1.083       .  S
C1985      O1991   1.316       .  A
C1985      C1990   1.380       .  A
C1985      C1986   1.403       .  A
C1986      C1987   1.402       .  A
C1986      H1997   1.079       .  S
C1987      C1996   1.366       .  A
C1987      C1988   1.380       .  A
C1988      O1994   1.314       .  A
C1988      C1989   1.401       .  A
C1989      C1990   1.400       .  A
C1989      H1998   1.079       .  S
C1990      C1993   1.363       .  A
O1991      C1992   1.330       .  A
C1992      C1993   1.390       .  A
C1993      H1999   1.083       .  S
O1994      C1995   1.330       .  A
C1995      C1996   1.392       .  A
C1996      H2000   1.082       .  S
C2001      O2007   1.316       .  A
C2001      C2006   1.381       .  A
C2001      C2002   1.402       .  A
C2002      C2003   1.400       .  A
C2002      H2013   1.081       .  S
C2003      C2012   1.361       .  A
C2003      C2004   1.380       .  A
C2004      O2010   1.318       .  A
C2004      C2005   1.405       .  A
C2005      C2006   1.402       .  A
C2005      H2014   1.081       .  S
C2006      C2009   1.364       .  A
O2007      C2008   1.330       .  A
C2008      C2009   1.391       .  A
C2009      H2015   1.082       .  S
O2010      C2011   1.331       .  A
C2011      C2012   1.388       .  A
C2012      H2016   1.081       .  S
C2017      O2023   1.314       .  A
C2017      C2022   1.381       .  A
C2017      C2018   1.398   1_565  A
C2018      C2019   1.396       .  A
C2018      H2029   1.081       .  S
C2019      C2028   1.354       .  A
C2019      C2020   1.380       .  A
C2020      O2026   1.323       .  A
C2020      C2021   1.408       .  A
C2021      C2022   1.407   1_545  A
C2021      H2030   1.082       .  S
C2022      C2025   1.368       .  A
O2023      C2024   1.328       .  A
C2024      C2025   1.394       .  A
C2025      H2031   1.082       .  S
O2026      C2027   1.333       .  A
C2027      C2028   1.389       .  A
C2028      H2032   1.083       .  S
C2033      O2039   1.312       .  A
C2033      C2038   1.381       .  A
C2033      C2034   1.398       .  A
C2034      C2035   1.396       .  A
C2034      H2045   1.083       .  S
C2035      C2044   1.356   1_455  A
C2035      C2036   1.380   1_455  A
C2036      O2042   1.323       .  A
C2036      C2037   1.410   1_655  A
C2037      C2038   1.409       .  A
C2037      H2046   1.082       .  S
C2038      C2041   1.372       .  A
O2039      C2040   1.328       .  A
C2040      C2041   1.395       .  A
C2041      H2047   1.082       .  S
O2042      C2043   1.334       .  A
C2043      C2044   1.388       .  A
C2044      H2048   1.083       .  S
C2049      O2055   1.312       .  A
C2049      C2054   1.381       .  A
C2049      C2050   1.395       .  A
C2050      C2051   1.395       .  A
C2050      H2061   1.082   1_556  S
C2051      C2060   1.352       .  A
C2051      C2052   1.380       .  A
C2052      O2058   1.325       .  A
C2052      C2053   1.410       .  A
C2053      C2054   1.409       .  A
C2053      H2062   1.082       .  S
C2054      C2057   1.370       .  A
O2055      C2056   1.327       .  A
C2056      C2057   1.395       .  A
C2057      H2063   1.082       .  S
O2058      C2059   1.334       .  A
C2059      C2060   1.388       .  A
C2060      H2064   1.083   1_556  S
C2065      C2070   1.380       .  A
C2065      C2066   1.408   1_556  A
C2066      C2067   1.408   1_454  A
C2067      C2076   1.368       .  A
C2067      C2068   1.381       .  A
C2068      O2074   1.313       .  A
C2068      C2069   1.397   1_655  A
C2069      C2070   1.396       .  A
C2069      H2078   1.082       .  S
C2070      C2073   1.353       .  A
C2072      C2073   1.388       .  A
C2073      H2079   1.083       .  S
O2074      C2075   1.327       .  A
C2075      C2076   1.394       .  A
C2076      H2080   1.082   1_556  S
C2081      O2087   1.321       .  A
C2081      C2086   1.381       .  A
C2081      C2082   1.401       .  A
C2082      C2083   1.402       .  A
C2082      H2093   1.082       .  S
C2083      C2092   1.357       .  A
C2083      C2084   1.381       .  A
C2084      O2090   1.322       .  A
C2084      C2085   1.404       .  A
C2085      C2086   1.405       .  A
C2085      H2094   1.082       .  S
C2086      C2089   1.359       .  A
O2087      C2088   1.330       .  A
C2088      C2089   1.393       .  A
C2089      H2095   1.083       .  S
O2090      C2091   1.331       .  A
C2091      C2092   1.391       .  A
C2092      H2096   1.083       .  S
C2097      O2103   1.312       .  A
C2097      C2102   1.381       .  A
C2097      C2098   1.398       .  A
C2098      C2099   1.397       .  A
C2098      H2109   1.082       .  S
C2099      C2108   1.355   1_545  A
C2099      C2100   1.381   1_545  A
C2100      O2106   1.322       .  A
C2100      C2101   1.408   1_565  A
C2101      C2102   1.407       .  A
C2101      H2110   1.082       .  S
C2102      C2105   1.369       .  A
O2103      C2104   1.328       .  A
C2104      C2105   1.393       .  A
C2105      H2111   1.082       .  S
O2106      C2107   1.333       .  A
C2107      C2108   1.389       .  A
C2108      H2112   1.083       .  S
C2113      O2119   1.312       .  A
C2113      C2118   1.381       .  A
C2113      C2114   1.397       .  A
C2114      C2115   1.396       .  A
C2114      H2125   1.082       .  S
C2115      C2124   1.355       .  A
C2115      C2116   1.381       .  A
C2116      O2122   1.322       .  A
C2116      C2117   1.407       .  A
C2117      C2118   1.406       .  A
C2117      H2126   1.082       .  S
C2118      C2121   1.368       .  A
O2119      C2120   1.328       .  A
C2120      C2121   1.393       .  A
C2121      H2127   1.082       .  S
O2122      C2123   1.332       .  A
C2123      C2124   1.389       .  A
C2129      O2135   1.322       .  A
C2129      C2134   1.380       .  A
C2129      C2130   1.403       .  A
C2130      C2131   1.404       .  A
C2130      H2141   1.080       .  S
C2131      C2140   1.360       .  A
C2131      C2132   1.380       .  A
C2132      O2138   1.321       .  A
C2132      C2133   1.401       .  A
C2133      C2134   1.402       .  A
C2133      H2142   1.079       .  S
C2134      C2137   1.357       .  A
O2135      C2136   1.331       .  A
C2136      C2137   1.391       .  A
C2137      H2143   1.083       .  S
O2138      C2139   1.330       .  A
C2139      C2140   1.393       .  A
C2140      H2144   1.083       .  S
C2145      O2151   1.323       .  A
C2145      C2146   1.408       .  A
C2146      C2147   1.408       .  A
C2146      H2157   1.082       .  S
C2147      C2156   1.369       .  A
C2147      C2148   1.381       .  A
C2148      O2154   1.312       .  A
C2149      C2150   1.395       .  A
C2149      H2158   1.082       .  S
C2150      C2153   1.352       .  A
C2152      C2153   1.388   1_554  A
C2153      H2159   1.083       .  S
O2154      C2155   1.327       .  A
C2155      C2156   1.394       .  A
C2156      H2160   1.082       .  S
C2161      O2167   1.323       .  A
C2161      C2162   1.408       .  A
C2162      H2173   1.082       .  S
C2163      C2172   1.367       .  A
C2163      C2164   1.381       .  A
C2164      O2170   1.314       .  A
C2164      C2165   1.398       .  A
C2165      C2166   1.397       .  A
C2165      H2174   1.082       .  S
C2166      C2169   1.355       .  A
O2167      C2168   1.333       .  A
C2169      H2175   1.083       .  S
O2170      C2171   1.328       .  A
C2171      C2172   1.393       .  A
C2177      C2182   1.381   1_554  A
C2178      H2189   1.081       .  S
C2179      C2188   1.357       .  A
C2179      C2180   1.381   1_554  A
C2180      O2186   1.320       .  A
C2180      C2181   1.401       .  A
C2181      C2182   1.402       .  A
C2181      H2190   1.081       .  S
C2182      C2185   1.358       .  A
C2184      C2185   1.392       .  A
C2185      H2191   1.083       .  S
O2186      C2187   1.330       .  A
C2187      C2188   1.390   1_556  A
C2193      O2199   1.322       .  A
C2193      C2198   1.381       .  A
C2193      C2194   1.403       .  A
C2194      C2195   1.404       .  A
C2194      H2205   1.082   1_556  S
C2195      C2204   1.358       .  A
C2195      C2196   1.381       .  A
C2196      O2202   1.321       .  A
C2196      C2197   1.402       .  A
C2197      C2198   1.403       .  A
C2197      H2206   1.082       .  S
C2198      C2201   1.358       .  A
O2199      C2200   1.331       .  A
C2200      C2201   1.392       .  A
C2201      H2207   1.083       .  S
O2202      C2203   1.331       .  A
C2203      C2204   1.392       .  A
C2204      H2208   1.083       .  S
