geometry optimzed in LAMMPS
_audit_creation_date              2020-12-01 
_audit_creation_method            'lammps2cif' 
_symmetry_space_group_name_H-M    'P1' 
_symmetry_Int_Tables_number       1 
_symmetry_cell_setting            triclinic 
loop_ 
_symmetry_equiv_pos_as_xyz 
  x,y,z 
_cell_length_a                    27.91153869 
_cell_length_b                    27.911025280433115 
_cell_length_c                    42.43387644227979 
_cell_angle_alpha                 89.76243282582789 
_cell_angle_beta                  91.00797648115112 
_cell_angle_gamma                 89.87808949887251 
loop_ 
_atom_site_label 
_atom_site_type_symbol 
_atom_site_fract_x 
_atom_site_fract_y 
_atom_site_fract_z 
_atom_site_charge 
O1          O  0.44244633  0.09093452  0.12714514    -0.73500
O2          O  0.40274736  0.22397781  0.12658370    -0.73600
O3          O  0.43517751  0.15975783  0.17089210    -0.73600
O4          O  0.41316139  0.15457319  0.08301533    -0.73700
O5          O  0.33675585  0.13447412  0.08935845    -0.73600
O6          O  0.36038612  0.13541165  0.17951381    -0.73600
O7          O  0.32794455  0.19999113  0.13544837    -0.73600
O8          O  0.36639881  0.06935733  0.13328072    -0.73600
Ni9        Ni  0.42602478  0.15821546  0.12668238     1.25400
Ni10       Ni  0.34514197  0.13403921  0.13477041     1.25400
C11         C  0.41047110  0.05823005  0.13023919     0.88600
C12         C  0.35806780  0.23335288  0.13030759     0.88600
C13         C  0.40251654  0.14676770  0.18968338     0.88600
C14         C  0.37180738  0.14516073  0.07140831     0.88800
O15         O  0.43361329  0.82211333  0.12643979    -0.73500
O16         O  0.48056459  0.69184988  0.13296208    -0.73600
O17         O  0.43681711  0.75535383  0.17248580    -0.73600
O18         O  0.47498290  0.75929017  0.08693891    -0.73700
O19         O  0.54742907  0.78633635  0.10087569    -0.73600
O20         O  0.50804479  0.78260499  0.18765917    -0.73600
O21         O  0.55181306  0.72040028  0.14827453    -0.73600
O22         O  0.50616273  0.84858799  0.14066804    -0.73600
Ni23       Ni  0.45398562  0.75595958  0.12923580     1.25400
Ni24       Ni  0.53093630  0.78524571  0.14499057     1.25400
C25         C  0.46274026  0.85667825  0.13226885     0.88600
C26         C  0.52459907  0.68517160  0.14122459     0.88600
C27         C  0.46516209  0.76981951  0.19438617     0.88600
C28         C  0.51639114  0.77477942  0.07955983     0.88800
O29         O  0.45551195  0.08948729  0.88668346    -0.73500
O30         O  0.41235380  0.22206353  0.87781744    -0.73600
O31         O  0.42052531  0.15664077  0.92564273    -0.73600
O32         O  0.45166402  0.15527770  0.83948840    -0.73700
O33         O  0.37923901  0.12654355  0.82705733    -0.73600
O34         O  0.34550076  0.13447461  0.91519709    -0.73600
O35         O  0.34023386  0.19379173  0.86459230    -0.73600
O36         O  0.38052684  0.06623307  0.87742209    -0.73600
Ni37       Ni  0.43768807  0.15683654  0.88287873     1.25400
Ni38       Ni  0.35880772  0.12937174  0.87061602     1.25400
C39         C  0.42413532  0.05591793  0.88351037     0.88600
C40         C  0.36842127  0.22909430  0.86898083     0.88600
C41         C  0.37860515  0.14663986  0.93504769     0.88600
C42         C  0.42126226  0.14055852  0.81905452     0.88800
O43         O  0.44569986  0.81915084  0.89370828    -0.73500
O44         O  0.49339682  0.68959918  0.88706313    -0.73600
O45         O  0.48344707  0.75419169  0.93430149    -0.73600
O46         O  0.45271782  0.75452610  0.84685855    -0.73700
O47         O  0.52455694  0.78479173  0.83612811    -0.73600
O48         O  0.55675260  0.78221310  0.92520852    -0.73600
O49         O  0.56530291  0.71967101  0.87616963    -0.73600
O50         O  0.51914368  0.84673167  0.88455495    -0.73600
Ni51       Ni  0.46628982  0.75316250  0.89086299     1.25400
Ni52       Ni  0.54415323  0.78406351  0.88013906     1.25400
C53         C  0.47508615  0.85415992  0.89030143     0.88600
C54         C  0.53763618  0.68385338  0.88010628     0.88600
C55         C  0.52371893  0.77010140  0.94438666     0.88600
C56         C  0.48264479  0.77078377  0.82712217     0.88800
O57         O  0.45310642  0.83522996  0.63141487    -0.73500
O58         O  0.40594887  0.70403894  0.63701314    -0.73600
O59         O  0.41708394  0.77048771  0.59041021    -0.73600
O60         O  0.44614523  0.76792100  0.67763086    -0.73700
O61         O  0.37415553  0.79843434  0.68788659    -0.73600
O62         O  0.34259673  0.79488782  0.59832641    -0.73600
O63         O  0.33416473  0.73440995  0.64758412    -0.73600
O64         O  0.37866979  0.86083990  0.63856967    -0.73600
Ni65       Ni  0.43321577  0.76841716  0.63371661     1.25400
Ni66       Ni  0.35486298  0.79816976  0.64348132     1.25400
C67         C  0.42267087  0.86978956  0.63392148     0.88600
C68         C  0.36155512  0.69835853  0.64404442     0.88600
C69         C  0.37568669  0.78157581  0.57951001     0.88600
C70         C  0.41554165  0.78277343  0.69721893     0.88800
O71         O  0.44551437  0.10575577  0.62382654    -0.73500
O72         O  0.48977517  0.23654371  0.63209412    -0.73600
O73         O  0.47904154  0.17291090  0.58434437    -0.73600
O74         O  0.45399262  0.16900104  0.67142543    -0.73700
O75         O  0.52679436  0.13842629  0.68098283    -0.73600
O76         O  0.55435131  0.14965885  0.59216473    -0.73600
O77         O  0.56275979  0.20764226  0.64294248    -0.73600
O78         O  0.52051048  0.07961479  0.63065642    -0.73600
Ni79       Ni  0.46449150  0.17203989  0.62752666     1.25400
Ni80       Ni  0.54382520  0.14291627  0.63700193     1.25400
C81         C  0.47597101  0.07123652  0.62616497     0.88600
C82         C  0.53409183  0.24315259  0.63952952     0.88600
C83         C  0.52029504  0.16347765  0.57347058     0.88600
C84         C  0.48551169  0.15210518  0.69054687     0.88800
O85         O  0.44104276  0.83630130  0.38751703    -0.73500
O86         O  0.40014081  0.70382341  0.38814603    -0.73600
O87         O  0.43218111  0.76655742  0.34379721    -0.73600
O88         O  0.41170566  0.77386423  0.43135156    -0.73700
O89         O  0.33541508  0.79452410  0.42360824    -0.73600
O90         O  0.35756125  0.79164247  0.33363388    -0.73600
O91         O  0.32533602  0.72830203  0.37778683    -0.73600
O92         O  0.36508431  0.85884176  0.37931816    -0.73600
Ni93       Ni  0.42387774  0.76924565  0.38794607     1.25400
Ni94       Ni  0.34310442  0.79418744  0.37819125     1.25400
C95         C  0.40929463  0.86925734  0.38348181     0.88600
C96         C  0.35541274  0.69473347  0.38361939     0.88600
C97         C  0.39939721  0.77941127  0.32419817     0.88600
C98         C  0.37055667  0.78347958  0.44229742     0.88800
O99         O  0.43274414  0.10536036  0.38546877    -0.73500
O100        O  0.48279701  0.23470151  0.37932699    -0.73600
O101        O  0.44158896  0.17036515  0.33913927    -0.73600
O102        O  0.47141309  0.16911048  0.42585148    -0.73700
O103        O  0.54537663  0.14362344  0.41772127    -0.73600
O104        O  0.51268253  0.13896753  0.32854626    -0.73600
O105        O  0.55399653  0.20351850  0.36803348    -0.73600
O106        O  0.50635533  0.07683118  0.37790709    -0.73600
Ni107      Ni  0.45466846  0.17095815  0.38282008     1.25400
Ni108      Ni  0.53223270  0.13954677  0.37269330     1.25400
C109        C  0.46183504  0.06997962  0.38267282     0.88600
C110        C  0.52713507  0.23995757  0.37225619     0.88600
C111        C  0.47122014  0.15436927  0.31925707     0.88600
C112        C  0.51300584  0.15852271  0.43655390     0.88800
O113        O  0.08036211  0.46426831  0.12660411    -0.73500
O114        O  0.21180263  0.42071525  0.12597309    -0.73600
O115        O  0.13931630  0.42655846  0.08296925    -0.73600
O116        O  0.15366094  0.45941304  0.16965608    -0.73700
O117        O  0.12706891  0.38769351  0.18347064    -0.73600
O118        O  0.11626510  0.35258220  0.09526113    -0.73600
O119        O  0.18678549  0.34818785  0.14055895    -0.73600
O120        O  0.05648021  0.39020864  0.13837912    -0.73600
Ni121      Ni  0.14710910  0.44530775  0.12585852     1.25400
Ni122      Ni  0.12093206  0.36701316  0.13998662     1.25400
C123        C  0.04684796  0.43404088  0.13214875     0.88600
C124        C  0.22047708  0.37681460  0.13303707     0.88600
C125        C  0.12499472  0.38493196  0.07450267     0.88600
C126        C  0.14231688  0.42961980  0.19119940     0.88800
O127        O  0.81193909  0.45966154  0.13132090    -0.73500
O128        O  0.68052003  0.50451860  0.13465411    -0.73600
O129        O  0.74620378  0.49102998  0.08910750    -0.73600
O130        O  0.74695934  0.47026615  0.17703426    -0.73700
O131        O  0.77496522  0.54393283  0.18553187    -0.73600
O132        O  0.76996962  0.56639054  0.09519950    -0.73600
O133        O  0.70777407  0.57843950  0.14331818    -0.73600
O134        O  0.83703654  0.53481548  0.13771793    -0.73600
Ni135      Ni  0.74531434  0.47885959  0.13281129     1.25400
Ni136      Ni  0.77321679  0.55868141  0.14074686     1.25400
C137        C  0.84608341  0.49029453  0.13405189     0.88600
C138        C  0.67288152  0.54937477  0.13931178     0.88600
C139        C  0.75769222  0.53132228  0.07720550     0.88600
C140        C  0.76311598  0.50222662  0.19577721     0.88800
O141        O  0.09006270  0.46085117  0.88986380    -0.73500
O142        O  0.21840591  0.40999383  0.88234200    -0.73600
O143        O  0.15462416  0.45445431  0.84319929    -0.73600
O144        O  0.15389500  0.41899053  0.92982064    -0.73700
O145        O  0.12271474  0.34757511  0.91838316    -0.73600
O146        O  0.12268008  0.38403558  0.82986395    -0.73600
O147        O  0.18615989  0.33949692  0.86967910    -0.73600
O148        O  0.06031247  0.38894397  0.87786565    -0.73600
Ni149      Ni  0.15551322  0.43847179  0.88682488     1.25400
Ni150      Ni  0.12223609  0.36230376  0.87349143     1.25400
C151        C  0.05419646  0.43270243  0.88529301     0.88600
C152        C  0.22293047  0.36616086  0.87374115     0.88600
C153        C  0.13810601  0.42590206  0.82228202     0.88600
C154        C  0.13541310  0.37940775  0.93870922     0.88800
O155        O  0.81977308  0.45476855  0.88434254    -0.73500
O156        O  0.68760116  0.49814838  0.88310632    -0.73600
O157        O  0.75048970  0.46613450  0.83953164    -0.73600
O158        O  0.75693940  0.48387911  0.92774615    -0.73700
O159        O  0.77634783  0.56042617  0.92178582    -0.73600
O160        O  0.78082795  0.53856333  0.83140994    -0.73600
O161        O  0.71392322  0.57175729  0.87254990    -0.73600
O162        O  0.84322822  0.53069555  0.88057320    -0.73600
Ni163      Ni  0.75273369  0.47311230  0.88390766     1.25400
Ni164      Ni  0.77933827  0.55315602  0.87627927     1.25400
C165        C  0.85331992  0.48622762  0.88296608     0.88600
C166        C  0.67948260  0.54272208  0.87734340     0.88600
C167        C  0.76733922  0.49746369  0.82078425     0.88600
C168        C  0.76606722  0.52470374  0.93972907     0.88800
O169        O  0.81667830  0.46338387  0.62144912    -0.73500
O170        O  0.68519649  0.42156268  0.62724350    -0.73600
O171        O  0.75057966  0.46297132  0.66701146    -0.73600
O172        O  0.75203004  0.42319090  0.58053464    -0.73700
O173        O  0.77478091  0.34958553  0.59513742    -0.73600
O174        O  0.77951489  0.39206473  0.68130428    -0.73600
O175        O  0.71247235  0.35040988  0.64358661    -0.73600
O176        O  0.84087056  0.38957874  0.63346035    -0.73600
Ni177      Ni  0.75001268  0.44537799  0.62334625     1.25400
Ni178      Ni  0.77752126  0.36786239  0.63884846     1.25400
C179        C  0.85054545  0.43318847  0.62730352     0.88600
C180        C  0.67764398  0.37896968  0.63757182     0.88600
C181        C  0.76680959  0.43481046  0.68858912     0.88600
C182        C  0.76433878  0.38030149  0.57356226     0.88800
O183        O  0.08602531  0.46166483  0.62742290    -0.73500
O184        O  0.21389407  0.51347840  0.63457167    -0.73600
O185        O  0.15193683  0.47151380  0.67458868    -0.73600
O186        O  0.14797632  0.50107362  0.58692556    -0.73700
O187        O  0.11693746  0.57320385  0.59627135    -0.73600
O188        O  0.11990070  0.54266771  0.68564515    -0.73600
O189        O  0.18127285  0.58458551  0.64491221    -0.73600
O190        O  0.05613353  0.53414800  0.63742304    -0.73600
Ni191      Ni  0.15120116  0.48443883  0.63047448     1.25400
Ni192      Ni  0.11773897  0.56132546  0.64144579     1.25400
C193        C  0.05018700  0.49003280  0.63090081     0.88600
C194        C  0.21811867  0.55793364  0.64175762     0.88600
C195        C  0.13596997  0.50143050  0.69454127     0.88600
C196        C  0.12994709  0.54054827  0.57688615     0.88800
O197        O  0.81780126  0.45498770  0.39271059    -0.73500
O198        O  0.68511018  0.41474940  0.38578842    -0.73600
O199        O  0.75364003  0.41468820  0.43254494    -0.73600
O200        O  0.74948089  0.45728700  0.34730926    -0.73700
O201        O  0.77392919  0.38607958  0.33133097    -0.73600
O202        O  0.77700776  0.34172610  0.41788384    -0.73600
O203        O  0.71075296  0.34325086  0.36999922    -0.73600
O204        O  0.84051420  0.38210797  0.37831575    -0.73600
Ni205      Ni  0.75052989  0.43789923  0.39027247     1.25400
Ni206      Ni  0.77624257  0.36068399  0.37388225     1.25400
C207        C  0.85113270  0.42508935  0.38576798     0.88600
C208        C  0.67650073  0.37211935  0.37581089     0.88600
C209        C  0.76654587  0.37193442  0.43946576     0.88600
C210        C  0.76200806  0.42967667  0.32501265     0.88800
O211        O  0.08728046  0.45221782  0.38945770    -0.73500
O212        O  0.21660335  0.50144054  0.39026923    -0.73600
O213        O  0.14581022  0.49279381  0.43307491    -0.73600
O214        O  0.15850531  0.45928967  0.34650077    -0.73700
O215        O  0.12800216  0.52963879  0.33212515    -0.73600
O216        O  0.11913935  0.56561066  0.41990147    -0.73600
O217        O  0.18745810  0.57244559  0.37486531    -0.73600
O218        O  0.05983554  0.52508109  0.37691856    -0.73600
Ni219      Ni  0.15311530  0.47387319  0.39027056     1.25400
Ni220      Ni  0.12280741  0.55077240  0.37536018     1.25400
C221        C  0.05229576  0.48125047  0.38390856     0.88600
C222        C  0.22281414  0.54550420  0.38268098     0.88600
C223        C  0.12944387  0.53382916  0.44096641     0.88600
C224        C  0.14477338  0.48826713  0.32472705     0.88800
C225        C  0.90295466  0.43963589  0.38564651    -0.04400
C226        C  0.92059209  0.47621390  0.40579419    -0.01600
C227        C  0.96962663  0.48877874  0.40572059     0.03400
C228        C  0.00182995  0.46491310  0.38574422    -0.04400
C229        C  0.98473548  0.42842578  0.36578915    -0.01600
C230        C  0.93567426  0.41620351  0.36534151     0.03400
C231        C  0.88889861  0.50048121  0.42730488     0.38100
C232        C  0.01726651  0.40480937  0.34448986     0.38100
C233        C  0.91920905  0.38079386  0.34266158     0.36500
C234        C  0.98718725  0.52592525  0.42678309     0.36500
N235        N  0.90667673  0.35245476  0.32449240    -0.38300
N236        N  0.00108877  0.55553398  0.44360309    -0.38300
N237        N  0.04277378  0.38577663  0.32734726    -0.37800
N238        N  0.86377565  0.51980451  0.44457803    -0.37800
C239        C  0.12166315  0.54543203  0.54216267    -0.04400
C240        C  0.13971691  0.58440290  0.52464081    -0.01600
C241        C  0.13853485  0.58321164  0.49115253     0.03400
C242        C  0.12095669  0.54221102  0.47520245    -0.04400
C243        C  0.09838613  0.50580173  0.49281775    -0.01600
C244        C  0.09834478  0.50763722  0.52596263     0.03400
C245        C  0.16198587  0.62425817  0.54097421     0.38100
C246        C  0.07491090  0.46606335  0.47682891     0.38100
C247        C  0.07422484  0.47009835  0.54339397     0.36500
C248        C  0.15719605  0.62318039  0.47330292     0.36500
N249        N  0.05479444  0.44002374  0.55696930    -0.38300
N250        N  0.17191779  0.65521732  0.45905930    -0.38300
N251        N  0.05619302  0.43434558  0.46420304    -0.37800
N252        N  0.17985461  0.65601391  0.55406946    -0.37800
C253        C  0.76875374  0.36735255  0.53982181    -0.04400
C254        C  0.81032777  0.38057620  0.52344779    -0.01600
C255        C  0.81173186  0.37617142  0.49039231     0.03400
C256        C  0.77121755  0.35969865  0.47339919    -0.04400
C257        C  0.73175943  0.34152407  0.48996334    -0.01600
C258        C  0.73067632  0.34501115  0.52323320     0.03400
C259        C  0.85164780  0.39932855  0.54043583     0.38100
C260        C  0.69212421  0.32003406  0.47269076     0.38100
C261        C  0.69014963  0.32655790  0.54031889     0.36500
C262        C  0.85484687  0.38898433  0.47376501     0.36500
N263        N  0.65804094  0.31125772  0.55397300    -0.38300
N264        N  0.88978612  0.39834857  0.46085125    -0.38300
N265        N  0.66076472  0.30226102  0.45893985    -0.37800
N266        N  0.88531779  0.41390530  0.55341369    -0.37800
C267        C  0.90197252  0.44793094  0.62773904    -0.04400
C268        C  0.93590729  0.42233442  0.64688913    -0.01600
C269        C  0.98488844  0.43413558  0.64630967     0.03400
C270        C  0.00042741  0.47269593  0.62773043    -0.04400
C271        C  0.96700530  0.49870953  0.60893554    -0.01600
C272        C  0.91802670  0.48658164  0.60896725     0.03400
C273        C  0.92073353  0.38546245  0.66882607     0.38100
C274        C  0.98320231  0.53777686  0.58906273     0.38100
C275        C  0.88470841  0.51388845  0.58928249     0.36500
C276        C  0.01898600  0.40805389  0.66620307     0.36500
N277        N  0.85835341  0.53585099  0.57355116    -0.38300
N278        N  0.04607502  0.38731654  0.68211882    -0.38300
N279        N  0.99613811  0.56890763  0.57326781    -0.37800
N280        N  0.90882803  0.35613807  0.68637975    -0.37800
C281        C  0.77217556  0.48349895  0.78675231    -0.04400
C282        C  0.76763310  0.51705725  0.76185785    -0.01600
C283        C  0.76799811  0.50166540  0.73000287     0.03400
C284        C  0.77104142  0.45197636  0.72238131    -0.04400
C285        C  0.77929387  0.41901469  0.74751800    -0.01600
C286        C  0.78082196  0.43475996  0.77910091     0.03400
C287        C  0.76214419  0.56762448  0.76876319     0.38100
C288        C  0.78673175  0.36832828  0.74157240     0.38100
C289        C  0.79322293  0.40022200  0.80371170     0.36500
C290        C  0.76734207  0.53786516  0.70534393     0.36500
N291        N  0.80313559  0.37258222  0.82318072    -0.38300
N292        N  0.76732474  0.56701535  0.68585637    -0.38300
N293        N  0.79287421  0.32789902  0.73714646    -0.37800
N294        N  0.75781235  0.60801389  0.77412794    -0.37800
C295        C  0.13613043  0.48644559  0.72824447    -0.04400
C296        C  0.09268944  0.47586543  0.74338635    -0.01600
C297        C  0.09322949  0.45284422  0.77320783     0.03400
C298        C  0.13720623  0.44303666  0.78900252    -0.04400
C299        C  0.18056951  0.45567708  0.77442178    -0.01600
C300        C  0.18006037  0.47594707  0.74386478     0.03400
C301        C  0.04739843  0.48828483  0.72816286     0.38100
C302        C  0.22595087  0.44733006  0.79077909     0.38100
C303        C  0.22495624  0.48629222  0.72852959     0.36500
C304        C  0.04847519  0.43964541  0.78772072     0.36500
N305        N  0.26083384  0.49434642  0.71633382    -0.38300
N306        N  0.01267906  0.42877950  0.79907744    -0.38300
N307        N  0.26211950  0.44090107  0.80389047    -0.37800
N308        N  0.01122880  0.49865045  0.71621253    -0.37800
C309        C  0.90497094  0.47226143  0.88403189    -0.04400
C310        C  0.93845633  0.49801675  0.86568121    -0.01600
C311        C  0.98787976  0.48794222  0.86833738     0.03400
C312        C  0.00420047  0.45003665  0.88771055    -0.04400
C313        C  0.97112006  0.42428819  0.90612138    -0.01600
C314        C  0.92180650  0.43567448  0.90458024     0.03400
C315        C  0.92215467  0.53323316  0.84257406     0.38100
C316        C  0.98804717  0.38662271  0.92727953     0.38100
C317        C  0.88878705  0.41032804  0.92471547     0.36500
C318        C  0.02179726  0.51544772  0.85009957     0.36500
N319        N  0.86250204  0.39008435  0.94080753    -0.38300
N320        N  0.04893356  0.53741991  0.83567116    -0.38300
N321        N  0.00152178  0.35667072  0.94419173    -0.37800
N322        N  0.90927706  0.56109361  0.82399259    -0.37800
C323        C  0.76891681  0.48821024  0.22948105    -0.04400
C324        C  0.74832558  0.51536965  0.25354499    -0.01600
C325        C  0.74497468  0.49614699  0.28434792     0.03400
C326        C  0.76386897  0.44962887  0.29183281    -0.04400
C327        C  0.78681215  0.42376979  0.26749928    -0.01600
C328        C  0.79018051  0.44353855  0.23696260     0.03400
C329        C  0.72980950  0.56290426  0.24648896     0.38100
C330        C  0.80643293  0.37624461  0.27300253     0.38100
C331        C  0.81719375  0.41821408  0.21317070     0.36500
C332        C  0.72007247  0.52449860  0.30759426     0.36500
N333        N  0.83906497  0.39824399  0.19439095    -0.38300
N334        N  0.70008050  0.54737144  0.32586707    -0.38300
N335        N  0.82172324  0.33800827  0.27685081    -0.37800
N336        N  0.71531089  0.60099206  0.24096253    -0.37800
C337        C  0.75692267  0.53508913  0.04194142    -0.04400
C338        C  0.72580689  0.50472634  0.02437585    -0.01600
C339        C  0.73061293  0.49992231  0.99165005     0.03400
C340        C  0.76299377  0.52939188  0.97487079    -0.04400
C341        C  0.79289221  0.56120045  0.99215794    -0.01600
C342        C  0.79041680  0.56347177  0.02551583     0.03400
C343        C  0.68800628  0.47785363  0.03971286     0.38100
C344        C  0.82930381  0.58852135  0.97607636     0.38100
C345        C  0.82442345  0.59294237  0.04285851     0.36500
C346        C  0.70269842  0.46277688  0.97590913     0.36500
N347        N  0.85176735  0.61629211  0.05666021    -0.38300
N348        N  0.68065226  0.43278489  0.96373707    -0.38300
N349        N  0.85869174  0.61001345  0.96334692    -0.37800
N350        N  0.65777159  0.45653974  0.05171285    -0.37800
C351        C  0.14641481  0.44459182  0.22542162    -0.04400
C352        C  0.14942542  0.40993501  0.24990956    -0.01600
C353        C  0.14971023  0.42390508  0.28199848     0.03400
C354        C  0.14778316  0.47317765  0.29057350    -0.04400
C355        C  0.14882288  0.50785755  0.26609544    -0.01600
C356        C  0.14770842  0.49391066  0.23402480     0.03400
C357        C  0.15408057  0.35940493  0.24243383     0.38100
C358        C  0.15287551  0.55846454  0.27357236     0.38100
C359        C  0.14758350  0.53139306  0.21016282     0.36500
C360        C  0.15199833  0.38656730  0.30591752     0.36500
N361        N  0.14760105  0.56156574  0.19136013    -0.38300
N362        N  0.15408627  0.35646342  0.32474603    -0.38300
N363        N  0.15633314  0.59881506  0.27935354    -0.37800
N364        N  0.15802810  0.31911191  0.23665037    -0.37800
C365        C  0.12480939  0.37437721  0.97301120    -0.04400
C366        C  0.10212660  0.41320556  0.98817948    -0.01600
C367        C  0.09871959  0.41424233  0.02118155     0.03400
C368        C  0.11793163  0.37653568  0.03986074    -0.04400
C369        C  0.13455528  0.33470159  0.02461445    -0.01600
C370        C  0.13862341  0.33390435  0.99121478     0.03400
C371        C  0.08229143  0.45298659  0.96995824     0.38100
C372        C  0.14938635  0.29340039  0.04317495     0.38100
C373        C  0.15937017  0.29269089  0.97588903     0.36500
C374        C  0.07524043  0.45473825  0.03592676     0.36500
N375        N  0.17595681  0.25972816  0.96368309    -0.38300
N376        N  0.05661680  0.48705144  0.04759820    -0.38300
N377        N  0.16098168  0.26027478  0.05795369    -0.37800
N378        N  0.06636265  0.48518550  0.95603669    -0.37800
C379        C  0.89722848  0.47477017  0.13359031    -0.04400
C380        C  0.91446860  0.44552230  0.10912733    -0.01600
C381        C  0.96346588  0.43243356  0.10852198     0.03400
C382        C  0.99586064  0.44955397  0.13185761    -0.04400
C383        C  0.97869812  0.47884343  0.15620182    -0.01600
C384        C  0.92965553  0.49113861  0.15721610     0.03400
C385        C  0.88227198  0.43054408  0.08385001     0.38100
C386        C  0.01114808  0.49475892  0.18105802     0.38100
C387        C  0.91233755  0.51937518  0.18334374     0.36500
C388        C  0.98063870  0.40164623  0.08365815     0.36500
N389        N  0.89851730  0.54180243  0.20419733    -0.38300
N390        N  0.99413842  0.37693151  0.06384873    -0.38300
N391        N  0.03664169  0.50742856  0.20111646    -0.37800
N392        N  0.85657993  0.41890532  0.06359729    -0.37800
C393        C  0.55012931  0.28777363  0.36835847    -0.04400
C394        C  0.55485418  0.32005840  0.39383490    -0.01600
C395        C  0.59312666  0.35342907  0.39471819     0.03400
C396        C  0.62693961  0.35378813  0.37038291    -0.04400
C397        C  0.61690565  0.32764196  0.34256999    -0.01600
C398        C  0.57835027  0.29516940  0.34147411     0.03400
C399        C  0.52257122  0.31741692  0.42001052     0.38100
C400        C  0.64802007  0.33214974  0.31564893     0.38100
C401        C  0.56937914  0.26701777  0.31328417     0.36500
C402        C  0.59965022  0.38471008  0.42162751     0.36500
N403        N  0.56205992  0.24456262  0.29084760    -0.38300
N404        N  0.60469052  0.40984929  0.44304833    -0.38300
N405        N  0.67301422  0.33563286  0.29428617    -0.37800
N406        N  0.49716192  0.31713357  0.44122389    -0.37800
C407        C  0.33618156  0.64529152  0.38582479    -0.04400
C408        C  0.32964990  0.61789294  0.35818158    -0.01600
C409        C  0.29515721  0.58080666  0.35733534     0.03400
C410        C  0.27052522  0.56829164  0.38491176    -0.04400
C411        C  0.28387573  0.58963407  0.41367760    -0.01600
C412        C  0.31396536  0.63009629  0.41385984     0.03400
C413        C  0.35636482  0.62965424  0.33024983     0.38100
C414        C  0.26368004  0.57205741  0.44280385     0.38100
C415        C  0.31658382  0.65888033  0.44210149     0.36500
C416        C  0.28286627  0.55742632  0.32785873     0.36500
N417        N  0.31584878  0.68090325  0.46509626    -0.38300
N418        N  0.27283939  0.53876771  0.30435408    -0.38300
N419        N  0.24845295  0.55743184  0.46612609    -0.37800
N420        N  0.37836377  0.63834375  0.30809439    -0.37800
C421        C  0.42313105  0.92060429  0.38343119    -0.04400
C422        C  0.41259380  0.94945083  0.35672132    -0.01600
C423        C  0.42291828  0.99893822  0.35713382     0.03400
C424        C  0.44446993  0.01985919  0.38406113    -0.04400
C425        C  0.45425628  0.99127978  0.41096312    -0.01600
C426        C  0.44346319  0.94180332  0.41070261     0.03400
C427        C  0.39235453  0.92791410  0.32840277     0.38100
C428        C  0.47440061  0.01315463  0.43915908     0.38100
C429        C  0.45172032  0.91301745  0.43882566     0.36500
C430        C  0.41160676  0.02825416  0.32969083     0.36500
N431        N  0.45801269  0.88995566  0.46125572    -0.38300
N432        N  0.40195477  0.05136616  0.30778090    -0.38300
N433        N  0.49010338  0.03075106  0.46171494    -0.37800
N434        N  0.37638616  0.91071501  0.30578825    -0.37800
C435        C  0.62874004  0.36030299  0.64327529    -0.04400
C436        C  0.62143949  0.33298032  0.67084762    -0.01600
C437        C  0.58528395  0.29804278  0.67136784     0.03400
C438        C  0.55491452  0.29158169  0.64476290    -0.04400
C439        C  0.55536778  0.32637682  0.62044519    -0.01600
C440        C  0.59305062  0.36027318  0.61931978     0.03400
C441        C  0.65309066  0.33884355  0.69805255     0.38100
C442        C  0.51860655  0.32657415  0.59607251     0.38100
C443        C  0.59703346  0.39228117  0.59251333     0.36500
C444        C  0.58174511  0.26627518  0.69840883     0.36500
N445        N  0.60015622  0.41781692  0.57108990    -0.38300
N446        N  0.57939641  0.24085433  0.71993978    -0.38300
N447        N  0.48911966  0.32899291  0.57666076    -0.37800
N448        N  0.67810213  0.34350190  0.71984565    -0.37800
C449        C  0.52635931  0.16862728  0.53854474    -0.04400
C450        C  0.49394088  0.19836953  0.52125179    -0.01600
C451        C  0.49135793  0.19632707  0.48825919     0.03400
C452        C  0.52178710  0.16500484  0.47130684    -0.04400
C453        C  0.55782972  0.13930784  0.48827724    -0.01600
C454        C  0.56030701  0.14137851  0.52170412     0.03400
C455        C  0.46079487  0.23032480  0.53700818     0.38100
C456        C  0.59102037  0.10868644  0.47178653     0.38100
C457        C  0.59706868  0.11420950  0.53848793     0.36500
C458        C  0.45490352  0.22563990  0.47242084     0.36500
N459        N  0.62680785  0.09278617  0.55170454    -0.38300
N460        N  0.42482681  0.24815548  0.46038159    -0.38300
N461        N  0.61760907  0.08415259  0.45878171    -0.37800
N462        N  0.43291396  0.25480070  0.54884583    -0.37800
C463        C  0.26545086  0.58075597  0.64739468    -0.04400
C464        C  0.27086843  0.61095608  0.67380168    -0.01600
C465        C  0.30681198  0.64607151  0.67444402     0.03400
C466        C  0.33868291  0.65074196  0.64894364    -0.04400
C467        C  0.33797675  0.61543593  0.62509849    -0.01600
C468        C  0.30107056  0.58058463  0.62420761     0.03400
C469        C  0.23698696  0.60843784  0.69940529     0.38100
C470        C  0.37230102  0.61694442  0.60002274     0.38100
C471        C  0.29727831  0.54755080  0.59800242     0.36500
C472        C  0.30761729  0.68042670  0.70011584     0.36500
N473        N  0.29417474  0.52112911  0.57711932    -0.38300
N474        N  0.30742245  0.70793304  0.72045368    -0.38300
N475        N  0.39933495  0.61646306  0.57970284    -0.37800
N476        N  0.20989522  0.60683531  0.71971953    -0.37800
C477        C  0.36798795  0.77824460  0.54447631    -0.04400
C478        C  0.33525080  0.80851028  0.52785584    -0.01600
C479        C  0.33477077  0.80996982  0.49439618     0.03400
C480        C  0.36532599  0.77957629  0.47722962    -0.04400
C481        C  0.39416773  0.74577798  0.49390641    -0.01600
C482        C  0.39676858  0.74617164  0.52693706     0.03400
C483        C  0.30340540  0.83981445  0.54489540     0.38100
C484        C  0.42097857  0.70915748  0.47722927     0.38100
C485        C  0.43114145  0.71403907  0.54225479     0.36500
C486        C  0.30448136  0.84442894  0.47787523     0.36500
N487        N  0.45991608  0.68938873  0.55380053    -0.38300
N488        N  0.28037658  0.87206332  0.46473781    -0.38300
N489        N  0.44208427  0.67981812  0.46412048    -0.37800
N490        N  0.27763777  0.86460699  0.55838953    -0.37800
C491        C  0.43685440  0.92143655  0.63151868    -0.04400
C492        C  0.41123497  0.95683920  0.64855510    -0.01600
C493        C  0.42226299  0.00584412  0.64525664     0.03400
C494        C  0.45983544  0.02045657  0.62566605    -0.04400
C495        C  0.48495060  0.98559511  0.60826324    -0.01600
C496        C  0.47307205  0.93648264  0.61078573     0.03400
C497        C  0.37398376  0.94341337  0.67039163     0.38100
C498        C  0.52225766  0.00034087  0.58694152     0.38100
C499        C  0.49661957  0.90197932  0.59075980     0.36500
C500        C  0.39601960  0.04109125  0.66329916     0.36500
N501        N  0.51517196  0.87461621  0.57455195    -0.38300
N502        N  0.37505723  0.06908623  0.67767676    -0.38300
N503        N  0.55203773  0.01185693  0.56988113    -0.37800
N504        N  0.34424789  0.93298455  0.68779914    -0.37800
C505        C  0.55924784  0.63565050  0.87700444    -0.04400
C506        C  0.58055932  0.62289425  0.84829561    -0.01600
C507        C  0.61514087  0.58604124  0.84762900     0.03400
C508        C  0.63029905  0.56324267  0.87584379    -0.04400
C509        C  0.60494510  0.57224018  0.90378572    -0.01600
C510        C  0.56893994  0.60797034  0.90422596     0.03400
C511        C  0.56981397  0.65031093  0.81990604     0.38100
C512        C  0.61847982  0.54851460  0.93292788     0.38100
C513        C  0.54559363  0.61977398  0.93350624     0.36500
C514        C  0.63745252  0.57353406  0.81816219     0.36500
N515        N  0.52701851  0.62923919  0.95685221    -0.38300
N516        N  0.65483129  0.56330330  0.79456638    -0.38300
N517        N  0.62753598  0.53087782  0.95698582    -0.37800
N518        N  0.56181358  0.67235591  0.79725608    -0.37800
C519        C  0.46712004  0.77381505  0.79351778    -0.04400
C520        C  0.44812445  0.73293498  0.77828716    -0.01600
C521        C  0.43174852  0.73590548  0.74672287     0.03400
C522        C  0.42959793  0.78067886  0.73106146    -0.04400
C523        C  0.44850829  0.82159061  0.74625659    -0.01600
C524        C  0.46768269  0.81809253  0.77725499     0.03400
C525        C  0.44607887  0.68740136  0.79489867     0.38100
C526        C  0.45102642  0.86671704  0.72935886     0.38100
C527        C  0.48688111  0.86039318  0.79265953     0.36500
C528        C  0.42038680  0.69216603  0.72985169     0.36500
N529        N  0.50226316  0.89413473  0.80491189    -0.38300
N530        N  0.41278196  0.65668468  0.71668667    -0.38300
N531        N  0.45393268  0.90282525  0.71606015    -0.37800
N532        N  0.44403684  0.65121191  0.80822246    -0.37800
C533        C  0.34660275  0.27747788  0.86370327    -0.04400
C534        C  0.34699790  0.31241904  0.88769550    -0.01600
C535        C  0.30825865  0.34510557  0.89011069     0.03400
C536        C  0.27058745  0.34440777  0.86746670    -0.04400
C537        C  0.27588834  0.31647315  0.84005394    -0.01600
C538        C  0.31342947  0.28290044  0.83827776     0.03400
C539        C  0.38645835  0.31466826  0.91006792     0.38100
C540        C  0.24125110  0.32055324  0.81421589     0.38100
C541        C  0.31581590  0.25156303  0.81109373     0.36500
C542        C  0.30541912  0.37659878  0.91707427     0.36500
N543        N  0.31727068  0.22664087  0.78939494    -0.38300
N544        N  0.30312581  0.40168669  0.93864274    -0.38300
N545        N  0.21374062  0.32373539  0.79357993    -0.37800
N546        N  0.41827320  0.31892686  0.92762424    -0.37800
C547        C  0.47258299  0.14876824  0.72412658    -0.04400
C548        C  0.45868127  0.19061707  0.74017693    -0.01600
C549        C  0.44212082  0.18758562  0.77124011     0.03400
C550        C  0.43576709  0.14242383  0.78571624    -0.04400
C551        C  0.45022615  0.10054055  0.76986969    -0.01600
C552        C  0.46896187  0.10374873  0.73919261     0.03400
C553        C  0.46170498  0.23708374  0.72481609     0.38100
C554        C  0.44843131  0.05446843  0.78566502     0.38100
C555        C  0.48347415  0.06064955  0.72287989     0.36500
C556        C  0.43369778  0.23129301  0.78874516     0.36500
N557        N  0.49513715  0.02625446  0.70991615    -0.38300
N558        N  0.42806974  0.26639116  0.80263575    -0.38300
N559        N  0.44791626  0.01742908  0.79798762    -0.37800
N560        N  0.46374989  0.27415793  0.71260060    -0.37800
C561        C  0.43679873  0.00387622  0.88640513    -0.04400
C562        C  0.40991035  0.96915819  0.86902173    -0.01600
C563        C  0.42051623  0.91997331  0.87197271     0.03400
C564        C  0.45859915  0.90459237  0.89167664    -0.04400
C565        C  0.48461660  0.93855644  0.90973245    -0.01600
C566        C  0.47347780  0.98788747  0.90740923     0.03400
C567        C  0.37202600  0.98341080  0.84695888     0.38100
C568        C  0.52254342  0.92255463  0.93119537     0.38100
C569        C  0.49876449  0.02164692  0.92753655     0.36500
C570        C  0.39362512  0.88531871  0.85335106     0.36500
N571        N  0.51890466  0.04838079  0.94378576    -0.38300
N572        N  0.37216688  0.85772476  0.83852673    -0.38300
N573        N  0.55274187  0.90966725  0.94825584    -0.37800
N574        N  0.34181745  0.99450818  0.82936489    -0.37800
C575        C  0.54725064  0.63704724  0.14041264    -0.04400
C576        C  0.56384659  0.61510140  0.16857169    -0.01600
C577        C  0.60083393  0.58032496  0.16775568     0.03400
C578        C  0.62353483  0.56990771  0.13906382    -0.04400
C579        C  0.60363866  0.58861874  0.11069994    -0.01600
C580        C  0.56408390  0.62022204  0.11138428     0.03400
C581        C  0.54406957  0.62986721  0.19837751     0.38100
C582        C  0.62642777  0.57949372  0.08094103     0.38100
C583        C  0.54271173  0.63809040  0.08221195     0.36500
C584        C  0.61640557  0.55629633  0.19646557     0.36500
N585        N  0.52511613  0.65173978  0.05895667    -0.38300
N586        N  0.62778656  0.53639254  0.21937602    -0.38300
N587        N  0.64407360  0.57390982  0.05678145    -0.37800
N588        N  0.52806570  0.64176361  0.22208459    -0.37800
C589        C  0.44715267  0.77322312  0.22767797    -0.04400
C590        C  0.40380838  0.75011506  0.23671014    -0.01600
C591        C  0.38580523  0.75569427  0.26746694     0.03400
C592        C  0.41230059  0.78114988  0.29035390    -0.04400
C593        C  0.45488189  0.80465974  0.28160637    -0.01600
C594        C  0.47160069  0.80176445  0.25048249     0.03400
C595        C  0.37797535  0.71880848  0.21515142     0.38100
C596        C  0.48144222  0.83286831  0.30471693     0.38100
C597        C  0.51370846  0.82934833  0.24235525     0.36500
C598        C  0.34043644  0.73411572  0.27577139     0.36500
N599        N  0.54723571  0.85155898  0.23612864    -0.38300
N600        N  0.30406855  0.71722068  0.28226897    -0.38300
N601        N  0.50277173  0.85516067  0.32310757    -0.37800
N602        N  0.35721999  0.69357567  0.19819921    -0.37800
C603        C  0.52575700  0.78139498  0.04547797    -0.07600
C604        C  0.49128286  0.80638910  0.02696372    -0.01600
C605        C  0.49296311  0.80496633  0.99394120     0.03400
C606        C  0.52884119  0.77803256  0.97885303    -0.04400
C607        C  0.56551350  0.75603967  0.99720323    -0.01600
C608        C  0.56448389  0.75853929  0.03057189     0.03400
C609        C  0.45307757  0.83307774  0.04185599     0.38100
C610        C  0.60196246  0.72781409  0.98193448     0.38100
C611        C  0.60173014  0.73551647  0.04945574     0.36500
C612        C  0.45641890  0.83034342  0.97557886     0.36500
N613        N  0.63154372  0.71723577  0.06454714    -0.38300
N614        N  0.42676298  0.85055484  0.96147501    -0.38300
N615        N  0.63079521  0.70492197  0.96972927    -0.37800
N616        N  0.42240562  0.85431103  0.05341078    -0.37800
C617        C  0.33854094  0.28271261  0.12761987    -0.04400
C618        C  0.33488556  0.31132953  0.15483274    -0.01600
C619        C  0.29804804  0.34613959  0.15661507     0.03400
C620        C  0.26900368  0.35620365  0.12984348    -0.04400
C621        C  0.28011529  0.33497926  0.10091438    -0.01600
C622        C  0.31186498  0.29580235  0.10024760     0.03400
C623        C  0.36742431  0.30334316  0.18128218     0.38100
C624        C  0.25626406  0.35135133  0.07217893     0.38100
C625        C  0.31168967  0.26592758  0.07245788     0.36500
C626        C  0.28815500  0.36949112  0.18623158     0.36500
N627        N  0.30858389  0.24290909  0.04993074    -0.38300
N628        N  0.28000036  0.38801652  0.20989723    -0.38300
N629        N  0.23840795  0.36512142  0.04905117    -0.37800
N630        N  0.39423008  0.29782278  0.20210244    -0.37800
C631        C  0.45512520  0.15285159  0.28541938    -0.04400
C632        C  0.41782585  0.18408935  0.27452584    -0.01600
C633        C  0.39634125  0.17764663  0.24456169     0.03400
C634        C  0.41572584  0.14449545  0.22352500    -0.04400
C635        C  0.45381226  0.11435089  0.23361121    -0.01600
C636        C  0.47252541  0.11746638  0.26465931     0.03400
C637        C  0.40277884  0.22474222  0.29321514     0.38100
C638        C  0.47297835  0.07905730  0.21214105     0.38100
C639        C  0.50850521  0.08306911  0.27517533     0.36500
C640        C  0.35410985  0.20512254  0.23542229     0.36500
N641        N  0.53696429  0.05533766  0.28347730    -0.38300
N642        N  0.31981238  0.22634307  0.22852022    -0.38300
N643        N  0.48836864  0.05086851  0.19511683    -0.37800
N644        N  0.39104897  0.25741357  0.30794780    -0.37800
C645        C  0.36614486  0.14874115  0.03655546    -0.04400
C646        C  0.39168022  0.18502078  0.02067655    -0.01600
C647        C  0.39524510  0.18432331  0.98779282     0.03400
C648        C  0.37014732  0.14953790  0.96965128    -0.04400
C649        C  0.34174715  0.11518691  0.98538997    -0.01600
C650        C  0.34039392  0.11434187  0.01877800     0.03400
C651        C  0.41498992  0.22361074  0.03815236     0.38100
C652        C  0.31751552  0.07791036  0.96758406     0.38100
C653        C  0.31547954  0.07599250  0.03474412     0.36500
C654        C  0.42839758  0.21760109  0.97344045     0.36500
N655        N  0.29587911  0.04520119  0.04750161    -0.38300
N656        N  0.45689754  0.24281656  0.96297517    -0.38300
N657        N  0.29838490  0.04797948  0.95341236    -0.37800
N658        N  0.43334602  0.25443774  0.05192876    -0.37800
C659        C  0.42383701  0.00642990  0.13043201    -0.04400
C660        C  0.45859355  0.98868428  0.10958815    -0.01600
C661        C  0.47055595  0.93950454  0.10974764     0.03400
C662        C  0.44669922  0.90726035  0.12987978    -0.04400
C663        C  0.41104099  0.92452802  0.15002709    -0.01600
C664        C  0.40037670  0.97395686  0.15085912     0.03400
C665        C  0.48116845  0.02059394  0.08723411     0.38100
C666        C  0.38669547  0.89163681  0.17093413     0.38100
C667        C  0.36691232  0.99142744  0.17400094     0.36500
C668        C  0.50712252  0.92196424  0.08877457     0.36500
N669        N  0.34041234  0.00534105  0.19255776    -0.38300
N670        N  0.53631773  0.90815684  0.07201801    -0.38300
N671        N  0.36721447  0.86536392  0.18752112    -0.37800
N672        N  0.49904659  0.04603950  0.06934960    -0.37800
loop_ 
_geom_bond_atom_site_label_1 
_geom_bond_atom_site_label_2 
_geom_bond_distance 
_geom_bond_site_symmetry_2 
_ccdc_geom_bond_type 
O1           Ni9   1.932       .  S
O1           C11   1.286       .  A
O2           Ni9   1.946       .  S
O2           C12   1.286       .  A
O3           Ni9   1.890       .  S
O3           C13   1.274       .  A
O4           Ni9   1.884       .  S
O4           C14   1.275       .  A
O5          Ni10   1.937       .  S
O5           C14   1.285       .  A
O6          Ni10   1.939       .  S
O6           C13   1.286       .  A
O7          Ni10   1.902       .  S
O7           C12   1.277       .  A
O8          Ni10   1.901       .  S
O8           C11   1.277       .  A
Ni9         Ni10   2.388       .  S
C11         C659   1.492       .  S
C12         C617   1.484       .  S
C13         C634   1.477       .  S
C14         C645   1.488       .  S
O15         Ni23   1.933       .  S
O15          C25   1.285       .  A
O16         Ni23   1.940       .  S
O16          C26   1.285       .  A
O17         Ni23   1.905       .  S
O17          C27   1.277       .  A
O18         Ni23   1.900       .  S
O18          C28   1.278       .  A
O19         Ni24   1.936       .  S
O19          C28   1.284       .  A
O20         Ni24   1.932       .  S
O20          C27   1.286       .  A
O21         Ni24   1.904       .  S
O21          C26   1.277       .  A
O22         Ni24   1.904       .  S
O22          C25   1.277       .  A
Ni23        Ni24   2.385       .  S
C25         C662   1.483       .  S
C26         C575   1.484       .  S
C27         C589   1.511       .  S
C28         C603   1.485       .  S
O29         Ni37   1.949       .  S
O29          C39   1.290       .  A
O30         Ni37   1.961       .  S
O30          C40   1.290       .  A
O31         Ni37   1.885       .  S
O31          C41   1.274       .  A
O32         Ni37   1.889       .  S
O32          C42   1.272       .  A
O33         Ni38   1.946       .  S
O33          C42   1.288       .  A
O34         Ni38   1.940       .  S
O34          C41   1.286       .  A
O35         Ni38   1.885       .  S
O35          C40   1.274       .  A
O36         Ni38   1.882       .  S
O36          C39   1.272       .  A
Ni37        Ni38   2.382       .  S
C39         C561   1.498       .  S
C40         C533   1.495       .  S
C41         C648   1.494       .  S
C42         C550   1.479       .  S
O43         Ni51   1.933       .  S
O43          C53   1.286       .  A
O44         Ni51   1.936       .  S
O44          C54   1.285       .  A
O45         Ni51   1.897       .  S
O45          C55   1.277       .  A
O46         Ni51   1.899       .  S
O46          C56   1.276       .  A
O47         Ni52   1.937       .  S
O47          C56   1.286       .  A
O48         Ni52   1.939       .  S
O48          C55   1.285       .  A
O49         Ni52   1.900       .  S
O49          C54   1.277       .  A
O50         Ni52   1.893       .  S
O50          C53   1.275       .  A
Ni51        Ni52   2.390       .  S
C53         C564   1.482       .  S
C54         C505   1.481       .  S
C55         C606   1.485       .  S
C56         C519   1.485       .  S
O57         Ni65   1.949       .  S
O57          C67   1.290       .  A
O58         Ni65   1.958       .  S
O58          C68   1.290       .  A
O59         Ni65   1.885       .  S
O59          C69   1.274       .  A
O60         Ni65   1.892       .  S
O60          C70   1.272       .  A
O61         Ni66   1.951       .  S
O61          C70   1.289       .  A
O62         Ni66   1.943       .  S
O62          C69   1.287       .  A
O63         Ni66   1.881       .  S
O63          C68   1.273       .  A
O64         Ni66   1.885       .  S
O64          C67   1.272       .  A
Ni65        Ni66   2.381       .  S
C67         C491   1.499       .  S
C68         C466   1.491       .  S
C69         C477   1.502       .  S
C70         C522   1.483       .  S
O71         Ni79   1.932       .  S
O71          C81   1.286       .  A
O72         Ni79   1.944       .  S
O72          C82   1.285       .  A
O73         Ni79   1.884       .  S
O73          C83   1.275       .  A
O74         Ni79   1.892       .  S
O74          C84   1.275       .  A
O75         Ni80   1.938       .  S
O75          C84   1.286       .  A
O76         Ni80   1.939       .  S
O76          C83   1.285       .  A
O77         Ni80   1.900       .  S
O77          C82   1.279       .  A
O78         Ni80   1.903       .  S
O78          C81   1.277       .  A
Ni79        Ni80   2.384       .  S
C81         C494   1.488       .  S
C82         C438   1.488       .  S
C83         C449   1.501       .  S
C84         C547   1.479       .  S
O85         Ni93   1.933       .  S
O85          C95   1.285       .  A
O86         Ni93   1.944       .  S
O86          C96   1.286       .  A
O87         Ni93   1.894       .  S
O87          C97   1.276       .  A
O88         Ni93   1.884       .  S
O88          C98   1.275       .  A
O89         Ni94   1.943       .  S
O89          C98   1.287       .  A
O90         Ni94   1.942       .  S
O90          C97   1.287       .  A
O91         Ni94   1.906       .  S
O91          C96   1.277       .  A
O92         Ni94   1.908       .  S
O92          C95   1.278       .  A
Ni93        Ni94   2.387       .  S
C95         C421   1.485       .  S
C96         C407   1.485       .  S
C97         C592   1.487       .  S
C98         C480   1.496       .  S
O99        Ni107   1.935       .  S
O99         C109   1.284       .  A
O100       Ni107   1.952       .  S
O100        C110   1.287       .  A
O101       Ni107   1.883       .  S
O101        C111   1.273       .  A
O102       Ni107   1.877       .  S
O102        C112   1.273       .  A
O103       Ni108   1.943       .  S
O103        C112   1.286       .  A
O104       Ni108   1.942       .  S
O104        C111   1.288       .  A
O105       Ni108   1.898       .  S
O105        C110   1.277       .  A
O106       Ni108   1.909       .  S
O106        C109   1.277       .  A
Ni107      Ni108   2.381       .  S
C109        C424   1.483       .  S
C110        C393   1.492       .  S
C111        C631   1.498       .  S
C112        C452   1.502       .  S
O113       Ni121   1.936       .  S
O113        C123   1.285       .  A
O114       Ni121   1.930       .  S
O114        C124   1.282       .  A
O115       Ni121   1.905       .  S
O115        C125   1.280       .  A
O116       Ni121   1.907       .  S
O116        C126   1.278       .  A
O117       Ni122   1.940       .  S
O117        C126   1.288       .  A
O118       Ni122   1.944       .  S
O118        C125   1.285       .  A
O119       Ni122   1.910       .  S
O119        C124   1.279       .  A
O120       Ni122   1.911       .  S
O120        C123   1.278       .  A
Ni121      Ni122   2.383       .  S
C123        C382   1.486   1_455  S
C124        C620   1.479       .  S
C125        C368   1.499       .  S
C126        C351   1.515       .  S
O127       Ni135   1.936       .  S
O127        C137   1.286       .  A
O128       Ni135   1.947       .  S
O128        C138   1.286       .  A
O129       Ni135   1.885       .  S
O129        C139   1.275       .  A
O130       Ni135   1.891       .  S
O130        C140   1.275       .  A
O131       Ni136   1.943       .  S
O131        C140   1.287       .  A
O132       Ni136   1.944       .  S
O132        C139   1.287       .  A
O133       Ni136   1.912       .  S
O133        C138   1.278       .  A
O134       Ni136   1.907       .  S
O134        C137   1.278       .  A
Ni135      Ni136   2.385       .  S
C137        C379   1.491       .  S
C138        C578   1.491       .  S
C139        C337   1.499       .  S
C140        C323   1.487       .  S
O141       Ni149   1.936       .  S
O141        C151   1.286       .  A
O142       Ni149   1.938       .  S
O142        C152   1.285       .  A
O143       Ni149   1.902       .  S
O143        C153   1.276       .  A
O144       Ni149   1.903       .  S
O144        C154   1.279       .  A
O145       Ni150   1.947       .  S
O145        C154   1.287       .  A
O146       Ni150   1.946       .  S
O146        C153   1.288       .  A
O147       Ni150   1.903       .  S
O147        C152   1.279       .  A
O148       Ni150   1.893       .  S
O148        C151   1.275       .  A
Ni149      Ni150   2.388       .  S
C151        C312   1.481       .  S
C152        C536   1.490       .  S
C153        C298   1.489       .  S
C154        C365   1.497       .  S
O155       Ni163   1.939       .  S
O155        C165   1.287       .  A
O156       Ni163   1.946       .  S
O156        C166   1.286       .  A
O157       Ni163   1.894       .  S
O157        C167   1.276       .  A
O158       Ni163   1.887       .  S
O158        C168   1.274       .  A
O159       Ni164   1.946       .  S
O159        C168   1.288       .  A
O160       Ni164   1.950       .  S
O160        C167   1.289       .  A
O161       Ni164   1.901       .  S
O161        C166   1.277       .  A
O162       Ni164   1.894       .  S
O162        C165   1.275       .  A
Ni163      Ni164   2.378       .  S
C165        C309   1.492       .  S
C166        C508   1.487       .  S
C167        C281   1.506       .  S
C168        C340   1.501       .  S
O169       Ni177   1.931       .  S
O169        C179   1.285       .  A
O170       Ni177   1.938       .  S
O170        C180   1.284       .  A
O171       Ni177   1.919       .  S
O171        C181   1.280       .  A
O172       Ni177   1.923       .  S
O172        C182   1.282       .  A
O173       Ni178   1.926       .  S
O173        C182   1.281       .  A
O174       Ni178   1.927       .  S
O174        C181   1.284       .  A
O175       Ni178   1.895       .  S
O175        C180   1.277       .  A
O176       Ni178   1.888       .  S
O176        C179   1.274       .  A
Ni177      Ni178   2.380       .  S
C179        C267   1.494       .  S
C180        C435   1.486       .  S
C181        C284   1.516       .  S
C182        C253   1.485       .  S
O183       Ni191   1.931       .  S
O183        C193   1.285       .  A
O184       Ni191   1.935       .  S
O184        C194   1.284       .  A
O185       Ni191   1.905       .  S
O185        C195   1.277       .  A
O186       Ni191   1.904       .  S
O186        C196   1.279       .  A
O187       Ni192   1.944       .  S
O187        C196   1.286       .  A
O188       Ni192   1.944       .  S
O188        C195   1.287       .  A
O189       Ni192   1.893       .  S
O189        C194   1.277       .  A
O190       Ni192   1.886       .  S
O190        C193   1.274       .  A
Ni191      Ni192   2.389       .  S
C193        C270   1.476       .  S
C194        C463   1.484       .  S
C195        C295   1.488       .  S
C196        C239   1.493       .  S
O197       Ni205   1.939       .  S
O197        C207   1.287       .  A
O198       Ni205   1.945       .  S
O198        C208   1.286       .  A
O199       Ni205   1.905       .  S
O199        C209   1.277       .  A
O200       Ni205   1.899       .  S
O200        C210   1.276       .  A
O201       Ni206   1.937       .  S
O201        C210   1.287       .  A
O202       Ni206   1.938       .  S
O202        C209   1.284       .  A
O203       Ni206   1.897       .  S
O203        C208   1.277       .  A
O204       Ni206   1.899       .  S
O204        C207   1.276       .  A
Ni205      Ni206   2.381       .  S
C207        C225   1.503       .  S
C208        C396   1.490       .  S
C209        C256   1.482       .  S
C210        C326   1.514       .  S
O211       Ni219   1.935       .  S
O211        C221   1.286       .  A
O212       Ni219   1.933       .  S
O212        C222   1.283       .  A
O213       Ni219   1.908       .  S
O213        C223   1.280       .  A
O214       Ni219   1.911       .  S
O214        C224   1.279       .  A
O215       Ni220   1.937       .  S
O215        C224   1.287       .  A
O216       Ni220   1.941       .  S
O216        C223   1.285       .  A
O217       Ni220   1.905       .  S
O217        C222   1.278       .  A
O218       Ni220   1.902       .  S
O218        C221   1.276       .  A
Ni219      Ni220   2.384       .  S
C221        C228   1.485       .  S
C222        C410   1.479       .  S
C223        C242   1.495       .  S
C224        C354   1.515       .  S
C225        C226   1.418       .  A
C225        C230   1.426       .  A
C226        C227   1.414       .  A
C226        C231   1.451       .  S
C227        C228   1.414   1_655  A
C227        C234   1.452       .  S
C228        C229   1.406   1_455  A
C229        C230   1.412       .  A
C229        C232   1.452   1_655  S
C230        C233   1.452       .  S
C231        N238   1.157       .  T
C232        N237   1.157       .  T
C233        N235   1.157       .  T
C234        N236   1.157   1_655  T
C239        C240   1.414       .  A
C239        C244   1.415       .  A
C240        C241   1.421       .  A
C240        C245   1.449       .  S
C241        C242   1.416       .  A
C241        C248   1.449       .  S
C242        C243   1.415       .  A
C243        C244   1.408       .  A
C243        C246   1.454       .  S
C244        C247   1.453       .  S
C245        N252   1.157       .  T
C246        N251   1.157       .  T
C247        N249   1.157       .  T
C248        N250   1.157       .  T
C253        C254   1.412       .  A
C253        C258   1.412       .  A
C254        C255   1.410       .  A
C254        C259   1.449       .  S
C255        C256   1.409       .  A
C255        C262   1.450       .  S
C256        C257   1.411       .  A
C257        C258   1.416       .  A
C257        C260   1.449       .  S
C258        C261   1.449       .  S
C259        N266   1.156       .  T
C260        N265   1.157       .  T
C261        N263   1.157       .  T
C262        N264   1.157       .  T
C267        C268   1.426       .  A
C267        C272   1.417       .  A
C268        C269   1.408       .  A
C268        C273   1.454       .  S
C269        C270   1.405   1_655  A
C269        C276   1.453   1_655  S
C270        C271   1.414   1_455  A
C271        C272   1.409       .  A
C271        C274   1.453       .  S
C272        C275   1.452       .  S
C273        N280   1.158       .  T
C274        N279   1.157       .  T
C275        N277   1.158       .  T
C276        N278   1.157       .  T
C281        C282   1.413       .  A
C281        C286   1.421       .  A
C282        C283   1.420       .  A
C282        C287   1.451       .  S
C283        C284   1.428       .  A
C283        C290   1.451       .  S
C284        C285   1.421       .  A
C285        C286   1.412       .  A
C285        C288   1.453       .  S
C286        C289   1.455       .  S
C287        N294   1.157       .  T
C288        N293   1.158       .  T
C289        N291   1.158       .  T
C290        N292   1.158       .  T
C295        C296   1.413       .  A
C295        C300   1.413       .  A
C296        C297   1.417       .  A
C296        C301   1.450       .  S
C297        C298   1.414       .  A
C297        C304   1.450       .  S
C298        C299   1.414       .  A
C299        C300   1.412       .  A
C299        C302   1.452       .  S
C300        C303   1.451       .  S
C301        N308   1.157       .  T
C302        N307   1.157       .  T
C303        N305   1.157       .  T
C304        N306   1.157       .  T
C309        C310   1.421       .  A
C309        C314   1.414       .  A
C310        C311   1.410       .  A
C310        C315   1.452       .  S
C311        C312   1.407   1_655  A
C311        C318   1.452   1_655  S
C312        C313   1.415   1_455  A
C313        C314   1.412       .  A
C313        C316   1.452       .  S
C314        C317   1.451       .  S
C315        N322   1.157       .  T
C316        N321   1.157   1_655  T
C317        N319   1.158       .  T
C318        N320   1.158       .  T
C323        C324   1.405       .  A
C323        C328   1.412       .  A
C324        C325   1.416       .  A
C324        C329   1.451       .  S
C325        C326   1.433       .  A
C325        C332   1.453       .  S
C326        C327   1.423       .  A
C327        C328   1.411       .  A
C327        C330   1.450       .  S
C328        C331   1.455       .  S
C329        N336   1.158       .  T
C330        N335   1.158       .  T
C331        N333   1.157       .  T
C332        N334   1.157       .  T
C337        C338   1.419       .  A
C337        C342   1.417       .  A
C338        C339   1.404   1_554  A
C338        C343   1.457       .  S
C339        C340   1.422       .  A
C339        C346   1.456       .  S
C340        C341   1.418       .  A
C341        C342   1.420   1_556  A
C341        C344   1.450       .  S
C342        C345   1.450       .  S
C343        N350   1.158       .  T
C344        N349   1.157       .  T
C345        N347   1.157       .  T
C346        N348   1.158       .  T
C351        C352   1.418       .  A
C351        C356   1.426       .  A
C352        C353   1.418       .  A
C352        C357   1.453       .  S
C353        C354   1.425       .  A
C353        C360   1.452       .  S
C354        C355   1.418       .  A
C355        C356   1.417       .  A
C355        C358   1.453       .  S
C356        C359   1.453       .  S
C357        N364   1.158       .  T
C358        N363   1.157       .  T
C359        N361   1.158       .  T
C360        N362   1.158       .  T
C365        C366   1.417       .  A
C365        C370   1.415       .  A
C366        C367   1.406   1_556  A
C366        C371   1.453       .  S
C367        C368   1.414       .  A
C367        C374   1.455       .  S
C368        C369   1.418       .  A
C369        C370   1.424   1_554  A
C369        C372   1.449       .  S
C370        C373   1.448       .  S
C371        N378   1.157       .  T
C372        N377   1.157       .  T
C373        N375   1.157       .  T
C374        N376   1.157       .  T
C379        C380   1.414       .  A
C379        C384   1.417       .  A
C380        C381   1.415       .  A
C380        C385   1.451       .  S
C381        C382   1.414       .  A
C381        C388   1.451       .  S
C382        C383   1.410       .  A
C383        C384   1.412       .  A
C383        C386   1.450   1_655  S
C384        C387   1.452       .  S
C385        N392   1.158       .  T
C386        N391   1.157       .  T
C387        N389   1.157       .  T
C388        N390   1.157       .  T
C393        C394   1.415       .  A
C393        C398   1.412       .  A
C394        C395   1.419       .  A
C394        C399   1.444       .  S
C395        C396   1.411       .  A
C395        C402   1.449       .  S
C396        C397   1.414       .  A
C397        C398   1.409       .  A
C397        C400   1.452       .  S
C398        C401   1.452       .  S
C399        N406   1.156       .  T
C400        N405   1.157       .  T
C401        N403   1.157       .  T
C402        N404   1.157       .  T
C407        C408   1.412       .  A
C407        C412   1.415       .  A
C408        C409   1.415       .  A
C408        C413   1.448       .  S
C409        C410   1.411       .  A
C409        C416   1.449       .  S
C410        C411   1.405       .  A
C411        C412   1.409       .  A
C411        C414   1.451       .  S
C412        C415   1.446       .  S
C413        N420   1.157       .  T
C414        N419   1.157       .  T
C415        N417   1.156       .  T
C416        N418   1.157       .  T
C421        C422   1.414       .  A
C421        C426   1.413       .  A
C422        C423   1.412       .  A
C422        C427   1.452       .  S
C423        C424   1.411   1_565  A
C423        C430   1.450   1_565  S
C424        C425   1.412   1_545  A
C425        C426   1.414       .  A
C425        C428   1.451   1_565  S
C426        C429   1.451       .  S
C427        N434   1.157       .  T
C428        N433   1.157       .  T
C429        N431   1.157       .  T
C430        N432   1.157       .  T
C435        C436   1.412       .  A
C435        C440   1.411       .  A
C436        C437   1.405       .  A
C436        C441   1.451       .  S
C437        C438   1.412       .  A
C437        C444   1.452       .  S
C438        C439   1.414       .  A
C439        C440   1.417       .  A
C439        C442   1.444       .  S
C440        C443   1.449       .  S
C441        N448   1.157       .  T
C442        N447   1.156       .  T
C443        N445   1.157       .  T
C444        N446   1.157       .  T
C449        C450   1.419       .  A
C449        C454   1.419       .  A
C450        C451   1.402       .  A
C450        C455   1.457       .  S
C451        C452   1.424       .  A
C451        C458   1.457       .  S
C452        C453   1.419       .  A
C453        C454   1.420       .  A
C453        C456   1.450       .  S
C454        C457   1.450       .  S
C455        N462   1.157       .  T
C456        N461   1.157       .  T
C457        N459   1.158       .  T
C458        N460   1.158       .  T
C463        C464   1.411       .  A
C463        C468   1.411       .  A
C464        C465   1.404       .  A
C464        C469   1.454       .  S
C465        C466   1.419       .  A
C465        C472   1.454       .  S
C466        C467   1.415       .  A
C467        C468   1.418       .  A
C467        C470   1.445       .  S
C468        C471   1.450       .  S
C469        N476   1.157       .  T
C470        N475   1.156       .  T
C471        N473   1.157       .  T
C472        N474   1.158       .  T
C477        C478   1.420       .  A
C477        C482   1.423       .  A
C478        C479   1.420       .  A
C478        C483   1.449       .  S
C479        C480   1.415       .  A
C479        C486   1.450       .  S
C480        C481   1.418       .  A
C481        C482   1.402       .  A
C481        C484   1.458       .  S
C482        C485   1.455       .  S
C483        N490   1.157       .  T
C484        N489   1.158       .  T
C485        N487   1.157       .  T
C486        N488   1.157       .  T
C491        C492   1.425       .  A
C491        C496   1.415       .  A
C492        C493   1.410   1_565  A
C492        C497   1.454       .  S
C493        C494   1.410       .  A
C493        C500   1.454       .  S
C494        C495   1.416   1_545  A
C495        C496   1.415       .  A
C495        C498   1.451   1_565  S
C496        C499   1.451       .  S
C497        N504   1.158       .  T
C498        N503   1.157       .  T
C499        N501   1.157       .  T
C500        N502   1.157       .  T
C505        C506   1.412       .  A
C505        C510   1.409       .  A
C506        C507   1.410       .  A
C506        C511   1.451       .  S
C507        C508   1.411       .  A
C507        C514   1.450       .  S
C508        C509   1.415       .  A
C509        C510   1.415       .  A
C509        C512   1.444       .  S
C510        C513   1.452       .  S
C511        N518   1.157       .  T
C512        N517   1.155       .  T
C513        N515   1.157       .  T
C514        N516   1.157       .  T
C519        C520   1.413       .  A
C519        C524   1.413       .  A
C520        C521   1.410       .  A
C520        C525   1.452       .  S
C521        C522   1.414       .  A
C521        C528   1.451       .  S
C522        C523   1.412       .  A
C523        C524   1.414       .  A
C523        C526   1.449       .  S
C524        C527   1.451       .  S
C525        N532   1.158       .  T
C526        N531   1.157       .  T
C527        N529   1.157       .  T
C528        N530   1.157       .  T
C533        C534   1.413       .  A
C533        C538   1.417       .  A
C534        C535   1.419       .  A
C534        C539   1.443       .  S
C535        C536   1.412       .  A
C535        C542   1.449       .  S
C536        C537   1.413       .  A
C537        C538   1.407       .  A
C537        C540   1.453       .  S
C538        C541   1.453       .  S
C539        N546   1.156       .  T
C540        N545   1.157       .  T
C541        N543   1.158       .  T
C542        N544   1.157       .  T
C547        C548   1.412       .  A
C547        C552   1.412       .  A
C548        C549   1.407       .  A
C548        C553   1.452       .  S
C549        C550   1.413       .  A
C549        C556   1.452       .  S
C550        C551   1.413       .  A
C551        C552   1.414       .  A
C551        C554   1.449       .  S
C552        C555   1.451       .  S
C553        N560   1.157       .  T
C554        N559   1.157       .  T
C555        N557   1.157       .  T
C556        N558   1.157       .  T
C561        C562   1.427   1_545  A
C561        C566   1.416   1_545  A
C562        C563   1.408       .  A
C562        C567   1.454       .  S
C563        C564   1.406       .  A
C563        C570   1.453       .  S
C564        C565   1.415       .  A
C565        C566   1.414       .  A
C565        C568   1.453       .  S
C566        C569   1.450   1_565  S
C567        N574   1.157       .  T
C568        N573   1.157       .  T
C569        N571   1.158       .  T
C570        N572   1.158       .  T
C575        C576   1.411       .  A
C575        C580   1.408       .  A
C576        C577   1.416       .  A
C576        C581   1.450       .  S
C577        C578   1.413       .  A
C577        C584   1.448       .  S
C578        C579   1.414       .  A
C579        C580   1.412       .  A
C579        C582   1.447       .  S
C580        C583   1.451       .  S
C581        N588   1.157       .  T
C582        N587   1.156       .  T
C583        N585   1.157       .  T
C584        N586   1.157       .  T
C589        C590   1.430       .  A
C589        C594   1.422       .  A
C590        C591   1.416       .  A
C590        C595   1.451       .  S
C591        C592   1.406       .  A
C591        C598   1.452       .  S
C592        C593   1.413       .  A
C593        C594   1.411       .  A
C593        C596   1.454       .  S
C594        C597   1.452       .  S
C595        N602   1.158       .  T
C596        N601   1.158       .  T
C597        N599   1.157       .  T
C598        N600   1.157       .  T
C603        C604   1.413       .  A
C603        C608   1.414       .  A
C604        C605   1.404   1_554  A
C604        C609   1.455       .  S
C605        C606   1.415       .  A
C605        C612   1.454       .  S
C606        C607   1.413       .  A
C607        C608   1.419   1_556  A
C607        C610   1.449       .  S
C608        C611   1.449       .  S
C609        N616   1.157       .  T
C610        N615   1.157       .  T
C611        N613   1.157       .  T
C612        N614   1.157       .  T
C617        C618   1.412       .  A
C617        C622   1.415       .  A
C618        C619   1.416       .  A
C618        C623   1.448       .  S
C619        C620   1.411       .  A
C619        C626   1.449       .  S
C620        C621   1.405       .  A
C621        C622   1.407       .  A
C621        C624   1.451       .  S
C622        C625   1.447       .  S
C623        N630   1.157       .  T
C624        N629   1.157       .  T
C625        N627   1.156       .  T
C626        N628   1.157       .  T
C631        C632   1.426       .  A
C631        C636   1.417       .  A
C632        C633   1.409       .  A
C632        C637   1.453       .  S
C633        C634   1.403       .  A
C633        C640   1.451       .  S
C634        C635   1.414       .  A
C635        C636   1.412       .  A
C635        C638   1.452       .  S
C636        C639   1.451       .  S
C637        N644   1.158       .  T
C638        N643   1.157       .  T
C639        N641   1.157       .  T
C640        N642   1.157       .  T
C645        C646   1.415       .  A
C645        C650   1.413       .  A
C646        C647   1.401   1_554  A
C646        C651   1.458       .  S
C647        C648   1.420       .  A
C647        C654   1.452       .  S
C648        C649   1.418       .  A
C649        C650   1.418   1_556  A
C649        C652   1.450       .  S
C650        C653   1.450       .  S
C651        N658   1.158       .  T
C652        N657   1.157       .  T
C653        N655   1.157       .  T
C654        N656   1.157       .  T
C659        C660   1.414   1_545  A
C659        C664   1.420   1_545  A
C660        C661   1.412       .  A
C660        C665   1.451   1_565  S
C661        C662   1.414       .  A
C661        C668   1.451       .  S
C662        C663   1.409       .  A
C663        C664   1.411       .  A
C663        C666   1.452       .  S
C664        C667   1.452       .  S
C665        N672   1.157       .  T
C666        N671   1.157       .  T
C667        N669   1.157   1_565  T
C668        N670   1.157       .  T
