geometry optimzed in LAMMPS
_audit_creation_date              2020-12-01 
_audit_creation_method            'lammps2cif' 
_symmetry_space_group_name_H-M    'P1' 
_symmetry_Int_Tables_number       1 
_symmetry_cell_setting            triclinic 
loop_ 
_symmetry_equiv_pos_as_xyz 
  x,y,z 
_cell_length_a                    38.89896527 
_cell_length_b                    38.72656339073078 
_cell_length_c                    70.45389173042363 
_cell_angle_alpha                 90.20822476978556 
_cell_angle_beta                  89.95872825104827 
_cell_angle_gamma                 90.48483909294816 
loop_ 
_atom_site_label 
_atom_site_type_symbol 
_atom_site_fract_x 
_atom_site_fract_y 
_atom_site_fract_z 
_atom_site_charge 
C1          C  0.80425906  0.65101623  0.32507786     0.80600
N2          N  0.81700895  0.68131115  0.31847528    -0.77800
C3          C  0.84625410  0.69510132  0.32577131     0.83000
N4          N  0.86301131  0.67824954  0.33983195    -0.77700
C5          C  0.85039549  0.64788115  0.34667854     0.83100
N6          N  0.82101870  0.63427982  0.33920697    -0.79400
C7          C  0.72601087  0.72575122  0.12290271     0.80600
N8          N  0.75204186  0.74178990  0.13237400    -0.77800
C9          C  0.76503205  0.77228095  0.12605283     0.83000
N10         N  0.75101532  0.78746003  0.11055502    -0.77700
C11         C  0.72443425  0.77199427  0.10121080     0.83100
N12         N  0.71229908  0.74094178  0.10731924    -0.79400
C13         C  0.34808541  0.72645418  0.32881536     0.80600
N14         N  0.31847552  0.73930229  0.32174590    -0.77800
C15         C  0.30411234  0.76797217  0.32929044     0.83000
N16         N  0.32022130  0.78472481  0.34377542    -0.77700
C17         C  0.35045192  0.77261321  0.35071949     0.83100
N18         N  0.36421657  0.74326219  0.34327034    -0.79400
C19         C  0.87585081  0.30355613  0.10771971     0.80600
N20         N  0.89199736  0.27718515  0.11682074    -0.77800
C21         C  0.87678066  0.26189706  0.13208241     0.83000
N22         N  0.84565074  0.27284905  0.13797359    -0.77700
C23         C  0.82934302  0.29886274  0.12914221     0.83100
N24         N  0.84454064  0.31438306  0.11401497    -0.79400
N25         N  0.97441249  0.93396149  0.25112195    -0.05800
N26         N  0.95125974  0.90958872  0.25464246    -0.57900
N27         N  0.00280346  0.01167113  0.26391402    -0.05500
N28         N  0.99552423  0.03368907  0.27770174    -0.60000
N29         N  0.97940796  0.01311166  0.25049453    -0.05100
N30         N  0.95616125  0.03647332  0.25466271    -0.57900
N31         N  0.99894932  0.93323768  0.26397974    -0.04700
N32         N  0.99316601  0.90858597  0.27642527    -0.60400
C33         C  0.96346155  0.89402917  0.27045425     0.96400
C34         C  0.96668690  0.04935270  0.27153204     0.96200
N35         N  0.10752988  0.00584984  0.24903234    -0.06000
N36         N  0.13052891  0.03088291  0.25139460    -0.58500
N37         N  0.07987325  0.92920804  0.26396205    -0.04100
N38         N  0.08743931  0.90774133  0.27787200    -0.59700
N39         N  0.10239573  0.92648964  0.25012579    -0.06000
N40         N  0.12535038  0.90278347  0.25415746    -0.58800
N41         N  0.08368116  0.00774543  0.26225750    -0.03700
N42         N  0.08978701  0.03384882  0.27381106    -0.59800
Mn43       Mn  0.04138333  0.97049293  0.26397870     1.18400
C44         C  0.11898121  0.04805794  0.26691494     0.98500
C45         C  0.11555585  0.89109721  0.27138648     0.99100
N46         N  0.97974081  0.01330892  0.20585045    -0.06000
N47         N  0.96218190  0.04215868  0.20387553    -0.62300
N48         N  0.99471272  0.93245767  0.19224131    -0.04800
N49         N  0.98401221  0.91071690  0.17894248    -0.63000
N50         N  0.97217818  0.93393044  0.20613670    -0.05500
N51         N  0.94601577  0.91294193  0.20275051    -0.62600
N52         N  0.00339858  0.01106903  0.19253226    -0.04400
N53         N  0.00251151  0.03814596  0.18128498    -0.63300
Mn54       Mn  0.97540767  0.97355799  0.22835157     1.10700
C55         C  0.97675356  0.05727704  0.18849329     0.99700
C56         C  0.95381904  0.89847311  0.18584118     0.99800
N57         N  0.09960771  0.92329331  0.20525264    -0.05500
N58         N  0.11816055  0.89521288  0.20260725    -0.60900
N59         N  0.08405090  0.00332145  0.19071533    -0.04900
N60         N  0.09424062  0.02409610  0.17689152    -0.57600
N61         N  0.10729928  0.00249758  0.20424160    -0.06200
N62         N  0.13335085  0.02311172  0.20015121    -0.60500
N63         N  0.07542162  0.92514225  0.19223046    -0.05200
N64         N  0.07704692  0.89871273  0.18046258    -0.57700
Mn65       Mn  0.10521651  0.96442210  0.22714815     1.20200
Mn66       Mn  0.03930844  0.96799083  0.19137540     1.10100
Cl67       Cl  0.04033103  0.96907151  0.22771119    -0.85600
C68         C  0.10367643  0.88024104  0.18709444     0.96700
C69         C  0.12481484  0.03656239  0.18317990     0.96500
C70         C  0.20305485  0.62994994  0.10749133     0.80600
N71         N  0.23272732  0.61745923  0.11494819    -0.77800
C72         C  0.24633556  0.63176725  0.13090435     0.83000
N73         N  0.23020023  0.65843424  0.13935004    -0.77700
C74         C  0.20085036  0.67136401  0.13213684     0.83100
N75         N  0.18711463  0.65710281  0.11611856    -0.79400
C76         C  0.76832575  0.15144350  0.33094470     0.80600
N77         N  0.75168760  0.13226852  0.34426014    -0.77800
C78         C  0.72095503  0.14308783  0.35131433     0.83000
N79         N  0.70737724  0.17331333  0.34517005    -0.77700
C80         C  0.72401559  0.19235135  0.33185700     0.83100
N81         N  0.75409012  0.18100229  0.32464951    -0.79400
C82         C  0.20600254  0.29893287  0.35406610     0.80600
N83         N  0.19119738  0.26985533  0.34669271    -0.77800
C84         C  0.20729572  0.25210045  0.33260140     0.83000
N85         N  0.23782874  0.26378408  0.32583529    -0.77700
C86         C  0.25274309  0.29262377  0.33307649     0.83100
N87         N  0.23679673  0.31010817  0.34721224    -0.79400
C88         C  0.36445712  0.13531806  0.09173977     0.80600
N89         N  0.37527220  0.16540888  0.09988411    -0.77800
C90         C  0.35745676  0.17945224  0.11447869     0.83000
N91         N  0.32886549  0.16331080  0.12093072    -0.77700
C92         C  0.31723210  0.13369500  0.11283307     0.83100
N93         N  0.33517845  0.11945698  0.09818938    -0.79400
N94         N  0.57492203  0.39020813  0.24579178    -0.05800
N95         N  0.59982372  0.36783384  0.24829893    -0.57900
N96         N  0.49538689  0.40966435  0.25990601    -0.05500
N97         N  0.46990390  0.40379445  0.27176288    -0.60000
N98         N  0.49555821  0.38654278  0.24615409    -0.05100
N99         N  0.46983027  0.36432207  0.24845382    -0.57900
N100        N  0.57383344  0.41233948  0.25997849    -0.04700
N101        N  0.59765932  0.40499209  0.27266532    -0.60400
C102        C  0.61392625  0.37751778  0.26499220     0.96400
C103        C  0.45416706  0.37556783  0.26451331     0.96200
N104        N  0.49018082  0.51440853  0.24961611    -0.06000
N105        N  0.46676925  0.53741553  0.25402331    -0.58500
N106        N  0.57074223  0.49373791  0.26177285    -0.04100
N107        N  0.59665883  0.49869916  0.27351948    -0.59700
N108        N  0.56908401  0.51898131  0.24937127    -0.06000
N109        N  0.59396250  0.54175605  0.25243171    -0.58800
N110        N  0.49220451  0.49073382  0.26289099    -0.03700
N111        N  0.47048168  0.49768247  0.27685609    -0.59800
Mn112      Mn  0.53311637  0.45146864  0.26172043     1.18400
C113        C  0.45442457  0.52661396  0.27090479     0.98500
C114        C  0.61089911  0.52864376  0.26751452     0.99100
N115        N  0.49675229  0.38909957  0.20111687    -0.06000
N116        N  0.47620348  0.36341768  0.19609729    -0.62300
N117        N  0.57427396  0.41975019  0.18897548    -0.04800
N118        N  0.59952243  0.41768728  0.17658167    -0.63000
N119        N  0.57550535  0.39414505  0.20118168    -0.05500
N120        N  0.60187453  0.37397153  0.19726091    -0.62600
N121        N  0.49646325  0.41352989  0.18819971    -0.04400
N122        N  0.47608972  0.40472609  0.17397383    -0.63300
Mn123      Mn  0.53561900  0.38884387  0.22360768     1.10700
C124        C  0.46325708  0.37372598  0.17927844     0.99700
C125        C  0.61653066  0.38912560  0.18188952     0.99800
N126        N  0.56813202  0.52285247  0.20507774    -0.05500
N127        N  0.59129163  0.54751544  0.20282695    -0.60900
N128        N  0.49100016  0.49410207  0.19116436    -0.04900
N129        N  0.46583949  0.49814773  0.17892872    -0.57600
N130        N  0.48916782  0.51710695  0.20490245    -0.06200
N131        N  0.46251172  0.53746647  0.20225022    -0.60500
N132        N  0.56925739  0.50077602  0.19088798    -0.05200
N133        N  0.59286595  0.51035273  0.17842276    -0.57700
Mn134      Mn  0.52894679  0.51931870  0.22725752     1.20200
Mn135      Mn  0.53276569  0.45716471  0.18934200     1.10100
Cl136      Cl  0.53256694  0.45415665  0.22549507    -0.85600
C137        C  0.60657495  0.53932183  0.18623278     0.96700
C138        C  0.44829181  0.52515003  0.18600511     0.96500
N139        N  0.54369263  0.95304699  0.49820541    -0.36300
N140        N  0.58799466  0.98282914  0.46941711    -0.56800
N141        N  0.55266894  0.94183913  0.44003828    -0.36300
N142        N  0.50489709  0.91601248  0.46870906    -0.56800
C143        C  0.56040587  0.97704230  0.50881340     0.27300
C144        C  0.51656857  0.94160730  0.50843867     0.27300
C145        C  0.57150172  0.96346757  0.42907700     0.27300
C146        C  0.52846099  0.92701348  0.42880310     0.27300
C147        C  0.60431109  0.99529212  0.48496576     0.35900
C148        C  0.60825553  0.99036714  0.45440608     0.35900
C149        C  0.49022127  0.90196804  0.48428739     0.35900
C150        C  0.49475793  0.89634722  0.45382377     0.35900
C151        C  0.54391377  0.98056022  0.52616179    -0.21600
C152        C  0.51624384  0.95819965  0.52592742    -0.21600
C153        C  0.55969597  0.96160696  0.41050668    -0.21600
C154        C  0.53258142  0.93856101  0.41033647    -0.21600
C155        C  0.63495516  0.01114137  0.47978372    -0.22600
C156        C  0.63739677  0.00814749  0.46043965    -0.22600
C157        C  0.47025140  0.87356314  0.47923902    -0.22600
C158        C  0.47313530  0.86999540  0.45993833    -0.22600
C159        C  0.59097688  0.99464727  0.50362078    -0.18000
C160        C  0.49340527  0.91511062  0.50293177    -0.18000
C161        C  0.50321369  0.90283299  0.43466189    -0.18000
C162        C  0.59952888  0.98422983  0.43520779    -0.18000
H163        H  0.55118426  0.99728364  0.53785274     0.14900
H164        H  0.49814925  0.95436589  0.53742058     0.14900
H165        H  0.56953039  0.97544775  0.39831083     0.14900
H166        H  0.51745240  0.93134957  0.39803511     0.14900
H167        H  0.65333926  0.02413382  0.48892210     0.13200
H168        H  0.65806154  0.01843019  0.45180676     0.13200
H169        H  0.45508548  0.85716375  0.48848250     0.13200
H170        H  0.46066791  0.85028290  0.45138751     0.13200
H171        H  0.55139883  0.94346270  0.48517803     0.26500
H172        H  0.55687195  0.93658153  0.45424118     0.26500
N173        N  0.03798184  0.46803276  0.99849758    -0.36300
N174        N  0.00529795  0.42487556  0.96933924    -0.56800
N175        N  0.03686620  0.46769007  0.93964646    -0.36300
N176        N  0.07356126  0.50752339  0.96894128    -0.56800
C177        C  0.02332140  0.44363761  0.00967209     0.27300
C178        C  0.05951198  0.48712714  0.00946826     0.27300
C179        C  0.02354560  0.44172525  0.92892903     0.27300
C180        C  0.05941716  0.48551899  0.92869143     0.27300
C181        C  0.98905221  0.41209723  0.98482509     0.35900
C182        C  0.98895393  0.41155090  0.95399991     0.35900
C183        C  0.08524536  0.52514278  0.98429104     0.35900
C184        C  0.08452658  0.52501805  0.95347140     0.35900
C185        C  0.03517836  0.44779324  0.02811815    -0.21600
C186        C  0.05795697  0.47513399  0.02798685    -0.21600
C187        C  0.03731843  0.44350519  0.91078939    -0.21600
C188        C  0.05985222  0.47113976  0.91062480    -0.21600
C189        C  0.96249425  0.39022342  0.97926779    -0.22600
C190        C  0.96238551  0.38993127  0.95978787    -0.22600
C191        C  0.10424603  0.55367235  0.97852090    -0.22600
C192        C  0.10375181  0.55363664  0.95904871    -0.22600
C193        C  0.99869695  0.41846132  0.00392339    -0.18000
C194        C  0.08001985  0.51553122  0.00347295    -0.18000
C195        C  0.07917986  0.51474888  0.93436150    -0.18000
C196        C  0.99860218  0.41706511  0.93484378    -0.18000
H197        H  0.02810620  0.43280727  0.04047287     0.14900
H198        H  0.07180637  0.48501150  0.04019785     0.14900
H199        H  0.03179999  0.42657884  0.89889713     0.14900
H200        H  0.07503545  0.47950190  0.89858260     0.14900
H201        H  0.94505562  0.37581717  0.98829054     0.13200
H202        H  0.94483464  0.37527051  0.95090682     0.13200
H203        H  0.11728088  0.57250000  0.98740669     0.13200
H204        H  0.11646112  0.57239183  0.95004134     0.13200
H205        H  0.03270570  0.47215483  0.98435229     0.26500
H206        H  0.02990825  0.47377286  0.95341151     0.26500
N207        N  0.03460095  0.48935213  0.44718899    -0.36300
N208        N  0.06812498  0.44820141  0.47649348    -0.56800
N209        N  0.03829428  0.49190494  0.50601761    -0.36300
N210        N  0.00155112  0.53048022  0.47663653    -0.56800
C211        C  0.04752016  0.46377414  0.43624426     0.27300
C212        C  0.01260335  0.50765715  0.43636475     0.27300
C213        C  0.05131904  0.46624673  0.51678519     0.27300
C214        C  0.01540606  0.50926297  0.51684513     0.27300
C215        C  0.08201499  0.43307794  0.46098911     0.35900
C216        C  0.08416829  0.43464764  0.49172864     0.35900
C217        C  0.99073050  0.54821726  0.46129507     0.35900
C218        C  0.99181139  0.54876193  0.49206018     0.35900
C219        C  0.03414480  0.46634730  0.41806295    -0.21600
C220        C  0.01211909  0.49394687  0.41814323    -0.21600
C221        C  0.03719822  0.46788786  0.53483764    -0.21600
C222        C  0.01444158  0.49490170  0.53485418    -0.21600
C223        C  0.10657332  0.40933261  0.46646675    -0.22600
C224        C  0.10799942  0.41039661  0.48586851    -0.22600
C225        C  0.97378611  0.57784294  0.46702739    -0.22600
C226        C  0.97452676  0.57822522  0.48648823    -0.22600
C227        C  0.07182732  0.43884287  0.44197007    -0.18000
C228        C  0.99365942  0.53693133  0.44224349    -0.18000
C229        C  0.99572525  0.53800473  0.51110128    -0.18000
C230        C  0.07598093  0.44173205  0.51091371    -0.18000
H231        H  0.03967484  0.45009667  0.40593406     0.14900
H232        H  0.99752421  0.50291861  0.40608310     0.14900
H233        H  0.04243226  0.45113357  0.54673169     0.14900
H234        H  0.99882791  0.50292348  0.54677706     0.14900
H235        H  0.12158362  0.39246758  0.45748683     0.13200
H236        H  0.12424734  0.39447641  0.49463587     0.13200
H237        H  0.96161475  0.59692371  0.45814881     0.13200
H238        H  0.96309977  0.59769748  0.49550724     0.13200
H239        H  0.04139913  0.49477154  0.46105030     0.26500
H240        H  0.04554573  0.49802146  0.49228707     0.26500
N241        N  0.55288548  0.94343410  0.94495466    -0.36300
N242        N  0.51681175  0.98840058  0.97148976    -0.56800
N243        N  0.55540492  0.95886379  0.00315965    -0.36300
N244        N  0.58803183  0.91060002  0.97659425    -0.56800
C245        C  0.52924483  0.95722922  0.93323219     0.27300
C246        C  0.56672706  0.91596984  0.93595482     0.27300
C247        C  0.53121020  0.97679555  0.01278847     0.27300
C248        C  0.57022233  0.93673565  0.01549324     0.27300
C249        C  0.50552806  0.00216478  0.95505331     0.35900
C250        C  0.50548513  0.00912482  0.98559631     0.35900
C251        C  0.60515490  0.89594766  0.96194117     0.35900
C252        C  0.60646625  0.90397498  0.99240562     0.35900
C253        C  0.52828991  0.93850112  0.91641735    -0.21600
C254        C  0.55190268  0.91245224  0.91814231    -0.21600
C255        C  0.53136563  0.96656347  0.03165090    -0.21600
C256        C  0.55589695  0.94131603  0.03334225    -0.21600
C257        C  0.48664675  0.03164720  0.95874546    -0.22600
C258        C  0.48646041  0.03594918  0.97808021    -0.22600
C259        C  0.63433610  0.87959463  0.96850010    -0.22600
C260        C  0.63529583  0.88484880  0.98774538    -0.22600
C261        C  0.50987231  0.98728822  0.93686305    -0.18000
C262        C  0.59393546  0.89552437  0.94285460    -0.18000
C263        C  0.59664442  0.91290522  0.01115171    -0.18000
C264        C  0.50940706  0.00254791  0.00520887    -0.18000
H265        H  0.51244803  0.94323781  0.90409485     0.14900
H266        H  0.55777972  0.89342833  0.90736155     0.14900
H267        H  0.51540309  0.97618435  0.04305756     0.14900
H268        H  0.56223308  0.92769860  0.04624363     0.14900
H269        H  0.47359445  0.04789031  0.94861914     0.13200
H270        H  0.47331745  0.05622477  0.98572002     0.13200
H271        H  0.65297810  0.86526985  0.96030227     0.13200
H272        H  0.65498868  0.87548793  0.99722131     0.13200
H273        H  0.56071421  0.95357266  0.95794114     0.26500
H274        H  0.56225235  0.96225618  0.98903412     0.26500
C275        C  0.77226029  0.77088868  0.82353657     0.80600
N276        N  0.75668006  0.78771122  0.83810265    -0.77800
C277        C  0.72836792  0.77378294  0.84661687     0.83000
N278        N  0.71553263  0.74298768  0.84031217    -0.77700
C279        C  0.73108375  0.72619762  0.82570333     0.83100
N280        N  0.75926546  0.74032521  0.81746086    -0.79400
C281        C  0.81025156  0.27031485  0.82690867     0.80600
N282        N  0.82560245  0.24221714  0.81919309    -0.77800
C283        C  0.85746425  0.23265854  0.82490404     0.83000
N284        N  0.87431817  0.25179757  0.83825046    -0.77700
C285        C  0.85952732  0.28046427  0.84578252     0.83100
N286        N  0.82740515  0.28947856  0.84011433    -0.79400
C287        C  0.38825738  0.09557214  0.83195298     0.80600
N288        N  0.40305320  0.12563480  0.82605835    -0.77800
C289        C  0.38859662  0.14405785  0.81189274     0.83000
N290        N  0.35946864  0.13231798  0.80361987    -0.77700
C291        C  0.34442647  0.10251642  0.80924726     0.83100
N292        N  0.35873933  0.08403327  0.82355526    -0.79400
C293        C  0.22176325  0.68578891  0.82014607     0.80600
N294        N  0.20587097  0.67008443  0.83501197    -0.77800
C295        C  0.22136199  0.64344851  0.84411565     0.83000
N296        N  0.25318518  0.63320666  0.83851309    -0.77700
C297        C  0.26921204  0.64895868  0.82372118     0.83100
N298        N  0.25307698  0.67476151  0.81439660    -0.79400
C299        C  0.21515243  0.29385955  0.59159264     0.80600
N300        N  0.20124615  0.26267706  0.59648414    -0.77800
C301        C  0.21690558  0.24283124  0.60975927     0.83000
N302        N  0.24605195  0.25452434  0.61821264    -0.77700
C303        C  0.26025190  0.28523119  0.61336151     0.83100
N304        N  0.24475277  0.30490268  0.60002431    -0.79400
C305        C  0.70722176  0.13499002  0.60003938     0.80600
N306        N  0.69267783  0.16337592  0.60804440    -0.77800
C307        C  0.70768545  0.17890852  0.62325577     0.83000
N308        N  0.73717947  0.16610787  0.63034708    -0.77700
C309        C  0.75206225  0.13804879  0.62257259     0.83100
N310        N  0.73696704  0.12224696  0.60739270    -0.79400
N311        N  0.60230572  0.48771016  0.75133929    -0.05800
N312        N  0.62445914  0.51297508  0.75476300    -0.57900
N313        N  0.57718812  0.40714600  0.76069312    -0.05500
N314        N  0.58522521  0.38174615  0.77234138    -0.60000
N315        N  0.59918805  0.40850155  0.74653984    -0.05100
N316        N  0.62219073  0.38381430  0.74805649    -0.57900
N317        N  0.57922212  0.48596291  0.76497302    -0.04700
N318        N  0.58512920  0.50984350  0.77796281    -0.60400
C319        C  0.61337057  0.52642847  0.77141022     0.96400
C320        C  0.61300167  0.36706525  0.76407445     0.96200
N321        N  0.47184053  0.41266693  0.74887217    -0.06000
N322        N  0.45087289  0.38571712  0.74954878    -0.58500
N323        N  0.49818463  0.48786644  0.76719454    -0.04100
N324        N  0.49247957  0.50947657  0.78145698    -0.59700
N325        N  0.47459625  0.49149047  0.75400317    -0.06000
N326        N  0.45285260  0.51586822  0.75874341    -0.58800
N327        N  0.49647762  0.40955522  0.76152962    -0.03700
N328        N  0.49290999  0.38060917  0.77106589    -0.59800
Mn329      Mn  0.53776179  0.44755940  0.76426331     1.18400
C330        C  0.46441475  0.36611532  0.76347723     0.98500
C331        C  0.46431780  0.52700180  0.77577276     0.99100
N332        N  0.59501721  0.41682925  0.70239881    -0.06000
N333        N  0.61379978  0.38967503  0.69825760    -0.62300
N334        N  0.57672154  0.49886568  0.69394889    -0.04800
N335        N  0.58556493  0.52322961  0.68175172    -0.63000
N336        N  0.60052041  0.49560383  0.70704098    -0.05500
N337        N  0.62570748  0.51799974  0.70427108    -0.62600
N338        N  0.57038874  0.42044405  0.68979315    -0.04400
N339        N  0.57179136  0.39585227  0.67681677    -0.63300
Mn340      Mn  0.60028232  0.45215061  0.72680810     1.10700
C341        C  0.59900486  0.37694926  0.68230887     0.99700
C342        C  0.61594881  0.53515709  0.68856074     0.99800
N343        N  0.47218173  0.50139714  0.70970077    -0.05500
N344        N  0.45074428  0.52756444  0.70822173    -0.60900
N345        N  0.49004110  0.42556157  0.69074596    -0.04900
N346        N  0.47950017  0.40765428  0.67584442    -0.57600
N347        N  0.46769189  0.42289120  0.70467627    -0.06200
N348        N  0.44176260  0.40267733  0.69967993    -0.60500
N349        N  0.49583816  0.50317679  0.69636416    -0.05200
N350        N  0.49119920  0.53044185  0.68561515    -0.57700
Mn351      Mn  0.47052208  0.45710397  0.72942819     1.20200
Mn352      Mn  0.53330545  0.46219617  0.69220433     1.10100
Cl353      Cl  0.53545364  0.45482551  0.72818358    -0.85600
C354        C  0.46314918  0.54544222  0.69317888     0.96700
C355        C  0.44970411  0.39310935  0.68176712     0.96500
C356        C  0.79021121  0.65823390  0.61654199     0.80600
N357        N  0.80288524  0.68746392  0.62467433    -0.77800
C358        C  0.83216402  0.70223370  0.61806980     0.83000
N359        N  0.84972918  0.68692585  0.60377848    -0.77700
C360        C  0.83772533  0.65728029  0.59578861     0.83100
N361        N  0.80766765  0.64311731  0.60205191    -0.79400
C362        C  0.37994547  0.79371580  0.60642741     0.80600
N363        N  0.35054689  0.80730641  0.61365007    -0.77800
C364        C  0.33477527  0.79193789  0.62868870     0.83000
N365        N  0.34844836  0.76304303  0.63632693    -0.77700
C366        C  0.37767141  0.74941382  0.62916309     0.83100
N367        N  0.39335826  0.76489664  0.61427656    -0.79400
N368        N  0.00225158  0.02938182  0.73732173    -0.05800
N369        N  0.97893938  0.05335828  0.74019662    -0.57900
N370        N  0.07937969  0.00093111  0.75116421    -0.05500
N371        N  0.10585246  0.00159371  0.76270856    -0.60000
N372        N  0.08183238  0.02552278  0.73836898    -0.05100
N373        N  0.11046598  0.04361849  0.74107068    -0.57900
N374        N  0.00091490  0.00595585  0.75076013    -0.04700
N375        N  0.97698856  0.01399371  0.76333349    -0.60400
C376        C  0.96315544  0.04328840  0.75632633     0.96400
C377        C  0.12494341  0.02825018  0.75636606     0.96200
N378        N  0.07519655  0.89701721  0.73783992    -0.06000
N379        N  0.09567298  0.87112948  0.74180608    -0.58500
N380        N  0.99708200  0.92491124  0.75003230    -0.04100
N381        N  0.97225071  0.92048602  0.76247313    -0.59700
N382        N  0.99657775  0.90034743  0.73708563    -0.06000
N383        N  0.97113223  0.87836038  0.74060366    -0.58800
N384        N  0.07511992  0.91975882  0.75173902    -0.03700
N385        N  0.09545344  0.90940757  0.76564679    -0.59800
Mn386      Mn  0.03807845  0.96309718  0.75142847     1.18400
C387        C  0.10841060  0.87923139  0.75907176     0.98500
C388        C  0.95619027  0.89154979  0.75643997     0.99100
N389        N  0.08203502  0.02854439  0.69347921    -0.06000
N390        N  0.10482371  0.05301507  0.68988484    -0.62300
N391        N  0.00275157  0.00564386  0.67970192    -0.04800
N392        N  0.97686969  0.00972004  0.66793381    -0.63000
N393        N  0.00272216  0.02964920  0.69296215    -0.05500
N394        N  0.97642458  0.05063036  0.69049188    -0.62600
N395        N  0.08105197  0.00590329  0.67953380    -0.04400
N396        N  0.10276763  0.01498136  0.66592840    -0.63300
Mn397      Mn  0.04240239  0.02946337  0.71561036     1.10700
C398        C  0.11776834  0.04410863  0.67280201     0.99700
C399        C  0.96067499  0.03777497  0.67478212     0.99800
N400        N  0.99951760  0.90153224  0.69241471    -0.05500
N401        N  0.97448406  0.87931020  0.68909353    -0.60900
N402        N  0.07963319  0.92450003  0.68020578    -0.04900
N403        N  0.10665985  0.92124216  0.66912208    -0.57600
N404        N  0.07878996  0.89998501  0.69311659    -0.06200
N405        N  0.10555072  0.87944183  0.69100406    -0.60500
N406        N  0.00111681  0.92487555  0.67894229    -0.05200
N407        N  0.97739495  0.91866773  0.66593365    -0.57700
Mn408      Mn  0.03750866  0.89862649  0.71499244     1.20200
Mn409      Mn  0.04121042  0.96509887  0.67901498     1.10100
Cl410      Cl  0.03996099  0.96404701  0.71525592    -0.85600
C411        C  0.96081330  0.89043735  0.67266352     0.96700
C412        C  0.12255517  0.89312859  0.67595100     0.96500
C413        C  0.20583774  0.86999634  0.65015941     0.16300
C414        C  0.23441761  0.86854015  0.63805908    -0.32800
C415        C  0.25751331  0.84139724  0.64069366     0.20700
C416        C  0.25235105  0.81694660  0.65477795     0.02900
C417        C  0.22378079  0.81836242  0.66681477    -0.22500
C418        C  0.20067742  0.84539026  0.66416829     0.12000
S419        S  0.17489198  0.90078096  0.64930124    -0.06100
C420        C  0.15476513  0.88014886  0.66793504    -0.09600
C421        C  0.17134752  0.85107251  0.67444891    -0.26200
S422        S  0.28306439  0.78605360  0.65579516    -0.03400
C423        C  0.30308371  0.80595795  0.63691149    -0.16900
C424        C  0.28671659  0.83524497  0.63034159    -0.14900
H425        H  0.23842821  0.88766033  0.62708035     0.20500
H426        H  0.21972470  0.79918673  0.67775786     0.16600
H427        H  0.16243265  0.83498562  0.68602279     0.19100
H428        H  0.29555770  0.85100452  0.61861472     0.12400
C429        C  0.90784979  0.83289920  0.64012832     0.16300
C430        C  0.89717976  0.81139083  0.62522201    -0.32800
C431        C  0.87636831  0.78292918  0.62983472     0.20700
C432        C  0.86569443  0.77677351  0.64832718     0.02900
C433        C  0.87626509  0.79827455  0.66318354    -0.22500
C434        C  0.89787553  0.82605204  0.65866089     0.12000
S435        S  0.93609857  0.86660841  0.63789098    -0.06100
C436        C  0.93524141  0.87037488  0.66220901    -0.09600
C437        C  0.91349007  0.84754568  0.67137855    -0.26200
S438        S  0.84100312  0.74065364  0.65111088    -0.03400
C439        C  0.84595062  0.73325248  0.62720312    -0.16900
C440        C  0.86530339  0.75773816  0.61762219    -0.14900
H441        H  0.90574599  0.81588039  0.61080483     0.20500
H442        H  0.86895450  0.79289187  0.67771956     0.16600
H443        H  0.91090678  0.84541567  0.68664480     0.19100
H444        H  0.87119991  0.75691088  0.60260090     0.12400
C445        C  0.41259186  0.62313944  0.67538718     0.16300
C446        C  0.38874498  0.64921618  0.67191074    -0.32800
C447        C  0.39652392  0.67290836  0.65751251     0.20700
C448        C  0.42652843  0.67067529  0.64694091     0.02900
C449        C  0.45032755  0.64462811  0.65039437    -0.22500
C450        C  0.44264419  0.62110140  0.66484733     0.12000
S451        S  0.40821462  0.59188360  0.69229594    -0.06100
C452        C  0.44735337  0.57618948  0.68504626    -0.09600
C453        C  0.46264913  0.59420323  0.67032598    -0.26200
S454        S  0.43127169  0.70191426  0.63015415    -0.03400
C455        C  0.39251767  0.71836201  0.63757951    -0.16900
C456        C  0.37688086  0.70028975  0.65220112    -0.14900
H457        H  0.36526603  0.65106014  0.68010608     0.20500
H458        H  0.47385752  0.64284594  0.64223273     0.16600
H459        H  0.48714655  0.58788858  0.66392850     0.19100
H460        H  0.35252273  0.70690882  0.65865814     0.12400
C461        C  0.68439424  0.59675655  0.66944388     0.16300
C462        C  0.71267123  0.61882948  0.66725742    -0.32800
C463        C  0.72503792  0.62417509  0.64885737     0.20700
C464        C  0.71021487  0.60814021  0.63321111     0.02900
C465        C  0.68118096  0.58671352  0.63533899    -0.22500
C466        C  0.66860029  0.58152856  0.65382842     0.12000
S467        S  0.66780292  0.58466093  0.69080844    -0.06100
C468        C  0.63865729  0.55942838  0.67864369    -0.09600
C469        C  0.64177235  0.56040319  0.65904842    -0.26200
S470        S  0.73138471  0.61588425  0.61230758    -0.03400
C471        C  0.75989054  0.64139894  0.62491439    -0.16900
C472        C  0.75308630  0.64367367  0.64414006    -0.14900
H473        H  0.72510490  0.63061618  0.67944103     0.20500
H474        H  0.66948220  0.57398252  0.62322271     0.16600
H475        H  0.62654089  0.54501004  0.64926746     0.19100
H476        H  0.76871573  0.65783412  0.65428956     0.12400
C477        C  0.62282312  0.29897153  0.65172940     0.16300
C478        C  0.62541318  0.27255626  0.63814008    -0.32800
C479        C  0.65396492  0.25075333  0.63929562     0.20700
C480        C  0.67857785  0.25508767  0.65337482     0.02900
C481        C  0.67578204  0.28107213  0.66699875    -0.22500
C482        C  0.64748557  0.30279816  0.66581357     0.12000
S483        S  0.59098457  0.32904431  0.65264615    -0.06100
C484        C  0.61138301  0.34648800  0.67220335    -0.09600
C485        C  0.64096466  0.32983217  0.67762794    -0.26200
S486        S  0.71159782  0.22688343  0.65238048    -0.03400
C487        C  0.69222203  0.20867312  0.63276449    -0.16900
C488        C  0.66163431  0.22386595  0.62735579    -0.14900
H489        H  0.60630154  0.26937347  0.62708995     0.20500
H490        H  0.69504559  0.28442688  0.67796241     0.16600
H491        H  0.65712734  0.33737331  0.68947962     0.19100
H492        H  0.64599999  0.21575370  0.61540859     0.12400
C493        C  0.83195808  0.11361253  0.65118005     0.16300
C494        C  0.85823480  0.11098468  0.66469681    -0.32800
C495        C  0.88311340  0.08555502  0.66177932     0.20700
C496        C  0.88176306  0.06377915  0.64610550     0.02900
C497        C  0.85554369  0.06645607  0.63260794    -0.22500
C498        C  0.83067511  0.09181306  0.63551993     0.12000
S499        S  0.79936839  0.14256224  0.65218899    -0.06100
C500        C  0.78368348  0.12500097  0.63132945    -0.09600
C501        C  0.80299035  0.09819290  0.62404759    -0.26200
S502        S  0.91399284  0.03445816  0.64507128    -0.03400
C503        C  0.92966660  0.05171820  0.66592010    -0.16900
C504        C  0.91071283  0.07877493  0.67326669    -0.14900
H505        H  0.85919470  0.12795314  0.67694189     0.20500
H506        H  0.85452365  0.04942030  0.62039486     0.16600
H507        H  0.79709415  0.08412933  0.61112546     0.19100
H508        H  0.91669820  0.09255747  0.68626909     0.12400
C509        C  0.17121376  0.15696301  0.62179848     0.16300
C510        C  0.15013095  0.12736551  0.62291087    -0.32800
C511        C  0.15302179  0.10664129  0.63920054     0.20700
C512        C  0.17591698  0.11505786  0.65362050     0.02900
C513        C  0.19753201  0.14389404  0.65224361    -0.22500
C514        C  0.19451929  0.16455611  0.63611723     0.12000
S515        S  0.17026154  0.18720360  0.60407348    -0.06100
C516        C  0.20188671  0.20978753  0.61612691    -0.09600
C517        C  0.21226902  0.19445152  0.63287394    -0.26200
S518        S  0.17269265  0.08985466  0.67329279    -0.03400
C519        C  0.14039850  0.06728167  0.66204074    -0.16900
C520        C  0.13287978  0.07858716  0.64384466    -0.14900
H521        H  0.13153255  0.12142331  0.61192275     0.20500
H522        H  0.21506397  0.15070484  0.66362000     0.16600
H523        H  0.23139098  0.20505803  0.64248313     0.19100
H524        H  0.11194128  0.06874047  0.63520757     0.12400
C525        C  0.38492946  0.36059028  0.64515613     0.16300
C526        C  0.36251086  0.35686880  0.62970380    -0.32800
C527        C  0.33658233  0.33162044  0.63101945     0.20700
C528        C  0.33363103  0.31057541  0.64684402     0.02900
C529        C  0.35565465  0.31465639  0.66239064    -0.22500
C530        C  0.38105101  0.34035171  0.66124345     0.12000
S531        S  0.41765085  0.39009465  0.64652469    -0.06100
C532        C  0.42534915  0.37559217  0.66916644    -0.09600
C533        C  0.40391349  0.34921025  0.67520696    -0.26200
S534        S  0.30102485  0.28110847  0.64566982    -0.03400
C535        C  0.29045110  0.29792227  0.62385970    -0.16900
C536        C  0.31157261  0.32469453  0.61779659    -0.14900
H537        H  0.36493567  0.37317064  0.61731128     0.20500
H538        H  0.35286103  0.29875494  0.67492081     0.16600
H539        H  0.40473012  0.33754609  0.68914928     0.19100
H540        H  0.30869143  0.33838612  0.60452426     0.12400
C541        C  0.35232375  0.62247803  0.79880358     0.16300
C542        C  0.37719781  0.61474823  0.78520071    -0.32800
C543        C  0.40308466  0.59179742  0.79029739     0.20700
C544        C  0.40529411  0.57814135  0.80842029     0.02900
C545        C  0.38063621  0.58650032  0.82226452    -0.22500
C546        C  0.35364927  0.60835617  0.81685266     0.12000
S547        S  0.31699626  0.64675239  0.79442012    -0.06100
C548        C  0.30296604  0.63718964  0.81696280    -0.09600
C549        C  0.32514638  0.61669512  0.82740378    -0.26200
S550        S  0.43671979  0.54767333  0.81084767    -0.03400
C551        C  0.44543579  0.55253082  0.78700681    -0.16900
C552        C  0.42609301  0.57741127  0.77807717    -0.14900
H553        H  0.37529417  0.62461841  0.77087715     0.20500
H554        H  0.38129868  0.57490411  0.83621973     0.16600
H555        H  0.32030173  0.60777858  0.84171587     0.19100
H556        H  0.42686233  0.58263832  0.76298203     0.12400
C557        C  0.18471588  0.75402478  0.78698250     0.16300
C558        C  0.17464418  0.77379667  0.77140186    -0.32800
C559        C  0.15779175  0.80492848  0.77507136     0.20700
C560        C  0.15161526  0.81633537  0.79342595     0.02900
C561        C  0.16132788  0.79627004  0.80907036    -0.22500
C562        C  0.17767536  0.76470652  0.80538815     0.12000
S563        S  0.20626413  0.71596008  0.78540314    -0.06100
C564        C  0.20504467  0.71383682  0.80978285    -0.09600
C565        C  0.18885107  0.74133862  0.81858658    -0.26200
S566        S  0.13031650  0.85483697  0.79464876    -0.03400
C567        C  0.12893888  0.85480502  0.77019448    -0.16900
C568        C  0.14479775  0.82678785  0.76174412    -0.14900
H569        H  0.17956704  0.76519055  0.75701801     0.20500
H570        H  0.15610149  0.80471057  0.82344574     0.16600
H571        H  0.18633542  0.74450743  0.83380018     0.19100
H572        H  0.14576353  0.82206214  0.74658896     0.12400
C573        C  0.42010352  0.28045552  0.77443266     0.16300
C574        C  0.39835597  0.25167056  0.77534248    -0.32800
C575        C  0.40665312  0.22594333  0.78840110     0.20700
C576        C  0.43531235  0.22848166  0.80003785     0.02900
C577        C  0.45720859  0.25721595  0.79905521    -0.22500
C578        C  0.44882649  0.28304503  0.78603603     0.12000
S579        S  0.41420166  0.31474059  0.75972275    -0.06100
C580        C  0.45077295  0.33266397  0.76938783    -0.09600
C581        C  0.46658810  0.31303548  0.78316843    -0.26200
S582        S  0.44040580  0.19453894  0.81513967    -0.03400
C583        C  0.40352784  0.17688267  0.80557998    -0.16900
C584        C  0.38838065  0.19640279  0.79149578    -0.14900
H585        H  0.37583958  0.24951195  0.76636750     0.20500
H586        H  0.47960439  0.25947413  0.80811260     0.16600
H587        H  0.48980417  0.32036330  0.79070788     0.19100
H588        H  0.36502186  0.18947999  0.78397508     0.12400
C589        C  0.26162697  0.08836355  0.78114586     0.16300
C590        C  0.23331856  0.09176849  0.76909507    -0.32800
C591        C  0.20744865  0.06662311  0.77025542     0.20700
C592        C  0.20979003  0.03923369  0.78283203     0.02900
C593        C  0.23819182  0.03575760  0.79485509    -0.22500
C594        C  0.26401406  0.06104173  0.79375659     0.12000
S595        S  0.29503266  0.11672093  0.78210177    -0.06100
C596        C  0.31241295  0.09182227  0.79985399    -0.09600
C597        C  0.29328725  0.06279623  0.80456760    -0.26200
S598        S  0.17568376  0.01159179  0.78222911    -0.03400
C599        C  0.15814386  0.03717472  0.76484616    -0.16900
C600        C  0.17776561  0.06558479  0.75981483    -0.14900
H601        H  0.23143948  0.11322746  0.75934602     0.20500
H602        H  0.23992924  0.01446452  0.80472163     0.16600
H603        H  0.30009462  0.04440703  0.81545234     0.19100
H604        H  0.17069179  0.08439256  0.74920265     0.12400
C605        C  0.90768605  0.15315088  0.80819387     0.16300
C606        C  0.93030548  0.12544586  0.80612102    -0.32800
C607        C  0.92711266  0.10488651  0.78979207     0.20700
C608        C  0.90275558  0.11179533  0.77597417     0.02900
C609        C  0.87955076  0.13902831  0.77826417    -0.22500
C610        C  0.88258139  0.15942388  0.79470502     0.12000
S611        S  0.90836558  0.18192457  0.82662188    -0.06100
C612        C  0.87386517  0.20218367  0.81632704    -0.09600
C613        C  0.86289167  0.18738588  0.79937951    -0.26200
S614        S  0.90596623  0.08643635  0.75615170    -0.03400
C615        C  0.93991765  0.06593733  0.76684966    -0.16900
C616        C  0.94805894  0.07811657  0.78477766    -0.14900
H617        H  0.95001977  0.12055443  0.81659348     0.20500
H618        H  0.86054260  0.14460000  0.76750246     0.16600
H619        H  0.84187356  0.19683359  0.79082206     0.19100
H620        H  0.96983508  0.06960810  0.79305755     0.12400
C621        C  0.72199806  0.30797185  0.81452605     0.16300
C622        C  0.69208505  0.32778235  0.81354264    -0.32800
C623        C  0.67310938  0.32659310  0.79663354     0.20700
C624        C  0.68326752  0.30635839  0.78137798     0.02900
C625        C  0.71250391  0.28548278  0.78262553    -0.22500
C626        C  0.73170782  0.28699096  0.79949405     0.12000
S627        S  0.75061380  0.30913876  0.83290853    -0.06100
C628        C  0.77597610  0.28093956  0.82027710    -0.09600
C629        C  0.76240453  0.27093751  0.80285935    -0.26200
S630        S  0.65973349  0.31263457  0.76119752    -0.03400
C631        C  0.63584536  0.34252279  0.77356312    -0.16900
C632        C  0.64543489  0.34678421  0.79234546    -0.14900
H633        H  0.68481216  0.34468416  0.82511962     0.20500
H634        H  0.72089275  0.27011045  0.77064297     0.16600
H635        H  0.77513046  0.25412213  0.79279902     0.19100
H636        H  0.63471457  0.36592004  0.80185459     0.12400
C637        C  0.70077720  0.64717159  0.79753053     0.16300
C638        C  0.69558843  0.62160250  0.78374544    -0.32800
C639        C  0.66783683  0.59891906  0.78629773     0.20700
C640        C  0.64625015  0.60145082  0.80192063     0.02900
C641        C  0.65146632  0.62706703  0.81573691    -0.22500
C642        C  0.67917773  0.64991141  0.81313635     0.12000
S643        S  0.73253209  0.67749752  0.79666959    -0.06100
C644        C  0.71645407  0.69444221  0.81747972    -0.09600
C645        C  0.68806911  0.67709023  0.82470550    -0.26200
S646        S  0.61387851  0.57154550  0.80232196    -0.03400
C647        C  0.62963699  0.55563405  0.78122324    -0.16900
C648        C  0.65841881  0.57263031  0.77433791    -0.14900
H649        H  0.71230450  0.61964442  0.77149393     0.20500
H650        H  0.63453445  0.62925111  0.82788140     0.16600
H651        H  0.67437900  0.68429492  0.83749068     0.19100
H652        H  0.67163972  0.56618449  0.76127693     0.12400
C653        C  0.88418073  0.86104469  0.78938553     0.16300
C654        C  0.85933613  0.85771614  0.80367046    -0.32800
C655        C  0.84062938  0.82670942  0.80443044     0.20700
C656        C  0.84655725  0.80017065  0.79159018     0.02900
C657        C  0.87147567  0.80345789  0.77734328    -0.22500
C658        C  0.89001182  0.83454687  0.77649589     0.12000
S659        S  0.90944375  0.89658968  0.78610907    -0.06100
C660        C  0.92787548  0.87564932  0.76708645    -0.09600
C661        C  0.91509701  0.84282009  0.76357801    -0.26200
S662        S  0.82076531  0.76492201  0.79459150    -0.03400
C663        C  0.80161728  0.78614647  0.81332934    -0.16900
C664        C  0.81487477  0.81879017  0.81700931    -0.14900
H665        H  0.85466522  0.87845309  0.81367498     0.20500
H666        H  0.87600945  0.78279938  0.76727109     0.16600
H667        H  0.92395976  0.82583414  0.75238852     0.19100
H668        H  0.80576024  0.83601306  0.82802640     0.12400
C669        C  0.41885140  0.03914319  0.87325269     0.16300
C670        C  0.42263310  0.01506267  0.88791145    -0.32800
C671        C  0.45298049  0.01664520  0.89866056     0.20700
C672        C  0.47838406  0.04110561  0.89497435     0.02900
C673        C  0.47450282  0.06522859  0.88043077    -0.22500
C674        C  0.44423594  0.06364235  0.86972147     0.12000
S675        S  0.38412570  0.04163666  0.85847680    -0.06100
C676        C  0.40401199  0.07622290  0.84758368    -0.09600
C677        C  0.43586282  0.08497885  0.85506792    -0.26200
S678        S  0.51338785  0.03883634  0.90943464    -0.03400
C679        C  0.49364440  0.00462023  0.92057413    -0.16900
C680        C  0.46160438  0.99556501  0.91347458    -0.14900
H681        H  0.40285608  0.99594141  0.89078931     0.20500
H682        H  0.49424740  0.08440246  0.87757202     0.16600
H683        H  0.45207179  0.10594727  0.85008045     0.19100
H684        H  0.44563586  0.97478562  0.91889080     0.12400
C685        C  0.63256189  0.83100107  0.90717773     0.16300
C686        C  0.63974910  0.80330141  0.89491727    -0.32800
C687        C  0.66927663  0.80587186  0.88348236     0.20700
C688        C  0.69068598  0.83465313  0.88428318     0.02900
C689        C  0.68335868  0.86238451  0.89638475    -0.22500
C690        C  0.65386471  0.85990139  0.90772981     0.12000
S691        S  0.59813065  0.83312040  0.92226703    -0.06100
C692        C  0.61252344  0.87350382  0.92908432    -0.09600
C693        C  0.64242227  0.88439812  0.92022931    -0.26200
S694        S  0.72525336  0.83295749  0.86941935    -0.03400
C695        C  0.71070304  0.79312398  0.86179271    -0.16900
C696        C  0.68061612  0.78190951  0.87054747    -0.14900
H697        H  0.62307352  0.78079351  0.89430254     0.20500
H698        H  0.69992302  0.88498325  0.89691051     0.16600
H699        H  0.65493836  0.90906956  0.92276145     0.19100
H700        H  0.66756421  0.75771451  0.86748637     0.12400
C701        C  0.11226987  0.37295079  0.54413237     0.16300
C702        C  0.11927926  0.34237533  0.55394505    -0.32800
C703        C  0.15208231  0.33888359  0.56193571     0.20700
C704        C  0.17675709  0.36476029  0.56030847     0.02900
C705        C  0.16982147  0.39526806  0.55042986    -0.22500
C706        C  0.13706035  0.39871818  0.54240454     0.12000
S707        S  0.07457319  0.38146906  0.53272611    -0.06100
C708        C  0.09249331  0.42001379  0.52549088    -0.09600
C709        C  0.12579949  0.42589190  0.53173317    -0.26200
S710        S  0.21453303  0.35610910  0.57153576    -0.03400
C711        C  0.19697877  0.31714883  0.57854998    -0.16900
C712        C  0.16362988  0.31134020  0.57225746    -0.14900
H713        H  0.10005653  0.32212659  0.55521919     0.20500
H714        H  0.18912804  0.41541502  0.54904532     0.16600
H715        H  0.14137929  0.44811208  0.52791233     0.19100
H716        H  0.14827235  0.28868467  0.57554904     0.12400
C717        C  0.95171362  0.59424307  0.54875559     0.16300
C718        C  0.94281412  0.61913406  0.56235620    -0.32800
C719        C  0.90791667  0.62199148  0.56715411     0.20700
C720        C  0.88306330  0.60081336  0.55897181     0.02900
C721        C  0.89191692  0.57618511  0.54530194    -0.22500
C722        C  0.92666910  0.57351041  0.54038703     0.12000
S723        S  0.99245139  0.58699476  0.54059877    -0.06100
C724        C  0.97522659  0.55618489  0.52563856    -0.09600
C725        C  0.94003820  0.55163146  0.52710325    -0.26200
S726        S  0.84237976  0.60717314  0.56726242    -0.03400
C727        C  0.85887238  0.63901010  0.58177576    -0.16900
C728        C  0.89409462  0.64428570  0.58013475    -0.14900
H729        H  0.96217423  0.63556370  0.56887069     0.20500
H730        H  0.87254844  0.55977363  0.53878493     0.16600
H731        H  0.92503513  0.53375749  0.51855668     0.19100
H732        H  0.90893974  0.66269787  0.58842486     0.12400
C733        C  0.11755225  0.57731484  0.89761171     0.16300
C734        C  0.12466093  0.60473089  0.88520097    -0.32800
C735        C  0.15760734  0.60645993  0.87708411     0.20700
C736        C  0.18237457  0.58205080  0.88118018     0.02900
C737        C  0.17530921  0.55472410  0.89360126    -0.22500
C738        C  0.14239242  0.55292453  0.90166184     0.12000
S739        S  0.07938270  0.57081657  0.90916955    -0.06100
C740        C  0.09718858  0.53490914  0.91948123    -0.09600
C741        C  0.13082490  0.52850127  0.91421439    -0.26200
S742        S  0.22044704  0.58812514  0.86957917    -0.03400
C743        C  0.20286485  0.62387051  0.85892802    -0.16900
C744        C  0.16925966  0.63063375  0.86436241    -0.14900
H745        H  0.10535411  0.62381716  0.88198202     0.20500
H746        H  0.19460273  0.53560659  0.89678987     0.16600
H747        H  0.14614107  0.50750430  0.91963019     0.19100
H748        H  0.15388118  0.65158876  0.85894551     0.12400
C749        C  0.96055676  0.34924029  0.90048072     0.16300
C750        C  0.95166887  0.31912730  0.89037356    -0.32800
C751        C  0.92213004  0.31997605  0.87891156     0.20700
C752        C  0.90235604  0.34949092  0.87759276     0.02900
C753        C  0.91153904  0.37972184  0.88744146    -0.22500
C754        C  0.94100510  0.37888318  0.89889238     0.12000
S755        S  0.99426685  0.35301355  0.91596200    -0.06100
C756        C  0.98195538  0.39499274  0.92017305    -0.09600
C757        C  0.95332785  0.40531245  0.91006727    -0.26200
S758        S  0.86695334  0.34507232  0.86344134    -0.03400
C759        C  0.87897498  0.30306099  0.85899024    -0.16900
C760        C  0.90898009  0.29328956  0.86814435    -0.14900
H761        H  0.96682684  0.29591856  0.89159963     0.20500
H762        H  0.89610051  0.40277784  0.88642561     0.16600
H763        H  0.94158107  0.43046813  0.91132206     0.19100
H764        H  0.92049707  0.26800159  0.86702464     0.12400
C765        C  0.64944974  0.03393572  0.54201069     0.16300
C766        C  0.67484282  0.04056176  0.55566877    -0.32800
C767        C  0.67554883  0.07335135  0.56415721     0.20700
C768        C  0.65203120  0.09851136  0.55926107     0.02900
C769        C  0.62697207  0.09211085  0.54533849    -0.22500
C770        C  0.62621129  0.05923902  0.53688480     0.12000
S771        S  0.64388360  0.99545517  0.53047800    -0.06100
C772        C  0.61012146  0.01371889  0.51852405    -0.09600
C773        C  0.60357404  0.04777957  0.52328272    -0.26200
S774        S  0.65596734  0.13587845  0.57204974    -0.03400
C775        C  0.68977387  0.11744650  0.58407126    -0.16900
C776        C  0.69751578  0.08419473  0.57821931    -0.14900
H777        H  0.69297068  0.02083544  0.55970284     0.20500
H778        H  0.60854869  0.11168555  0.54148911     0.16600
H779        H  0.58345606  0.06322020  0.51705848     0.19100
H780        H  0.71740563  0.06835140  0.58436314     0.12400
C781        C  0.43804611  0.82781718  0.56692394     0.16300
C782        C  0.46515053  0.83425999  0.55440229    -0.32800
C783        C  0.46126505  0.86122810  0.54149628     0.20700
C784        C  0.43163267  0.88091871  0.54091711     0.02900
C785        C  0.40447798  0.87454021  0.55355224    -0.22500
C786        C  0.40847741  0.84760072  0.56659989     0.12000
S787        S  0.43817628  0.79631267  0.58363135    -0.06100
C788        C  0.39809547  0.81008887  0.59053626    -0.09600
C789        C  0.38534351  0.83755625  0.58021952    -0.26200
S790        S  0.43212556  0.91239674  0.52399077    -0.03400
C791        C  0.47267158  0.89877490  0.51793838    -0.16900
C792        C  0.48495736  0.87145314  0.52835979    -0.14900
H793        H  0.48832775  0.81896942  0.55474388     0.20500
H794        H  0.38137013  0.88992650  0.55327205     0.16600
H795        H  0.36064924  0.84954239  0.58258969     0.19100
H796        H  0.50993456  0.85981193  0.52638976     0.12400
C797        C  0.43938146  0.03931920  0.03769497     0.16300
C798        C  0.40968405  0.04491517  0.04850344    -0.32800
C799        C  0.40680591  0.07659244  0.05801640     0.20700
C800        C  0.43234886  0.10168172  0.05675319     0.02900
C801        C  0.46206295  0.09616248  0.04587810    -0.22500
C802        C  0.46501203  0.06435493  0.03643747     0.12000
S803        S  0.44752583  0.00247951  0.02522345    -0.06100
C804        C  0.48597721  0.02077226  0.01836012    -0.09600
C805        C  0.49197024  0.05383024  0.02528552    -0.26200
S806        S  0.42446041  0.13788980  0.06983453    -0.03400
C807        C  0.38641400  0.11897242  0.07722782    -0.16900
C808        C  0.38029910  0.08639608  0.06967224    -0.14900
H809        H  0.38978846  0.02529054  0.04956802     0.20500
H810        H  0.48211961  0.11565359  0.04497106     0.16600
H811        H  0.51461347  0.06927094  0.02219220     0.19100
H812        H  0.35817471  0.07033065  0.07294891     0.12400
C813        C  0.42568352  0.31144249  0.14263055     0.16300
C814        C  0.42049855  0.28937989  0.12701738    -0.32800
C815        C  0.39898959  0.26048403  0.12965923     0.20700
C816        C  0.38269788  0.25453968  0.14688534     0.02900
C817        C  0.38776216  0.27654805  0.16237239    -0.22500
C818        C  0.40992357  0.30471021  0.15991701     0.12000
S819        S  0.45294870  0.34626139  0.14302808    -0.06100
C820        C  0.44358403  0.35076474  0.16680784    -0.09600
C821        C  0.42022444  0.32707126  0.17384036    -0.26200
S822        S  0.35791620  0.21827312  0.14755091    -0.03400
C823        C  0.36990214  0.21040632  0.12444801    -0.16900
C824        C  0.39192657  0.23489999  0.11666150    -0.14900
H825        H  0.43340840  0.29395513  0.11362662     0.20500
H826        H  0.37571274  0.27135624  0.17594117     0.16600
H827        H  0.41231283  0.32544281  0.18855849     0.19100
H828        H  0.40211151  0.23402080  0.10235983     0.12400
C829        C  0.10556589  0.37207478  0.40625869     0.16300
C830        C  0.11128436  0.34318297  0.39461919    -0.32800
C831        C  0.14397105  0.33985186  0.38635852     0.20700
C832        C  0.16972940  0.36413286  0.38962898     0.02900
C833        C  0.16400363  0.39294602  0.40117858    -0.22500
C834        C  0.13140008  0.39638284  0.40930972     0.12000
S835        S  0.06822421  0.38045128  0.41817275    -0.06100
C836        C  0.08779509  0.41707498  0.42715514    -0.09600
C837        C  0.12126845  0.42237566  0.42117553    -0.26200
S838        S  0.20731186  0.35615523  0.37812060    -0.03400
C839        C  0.18820222  0.31986930  0.36846576    -0.16900
C840        C  0.15450337  0.31415891  0.37425077    -0.14900
H841        H  0.09120131  0.32417283  0.39212982     0.20500
H842        H  0.18410255  0.41193987  0.40368307     0.16600
H843        H  0.13763599  0.44351336  0.42584195     0.19100
H844        H  0.13830718  0.29300633  0.36943134     0.12400
C845        C  0.37506217  0.32684806  0.28330023     0.16300
C846        C  0.34691812  0.30485472  0.28647549    -0.32800
C847        C  0.32737530  0.31042064  0.30292222     0.20700
C848        C  0.33538713  0.33660863  0.31569052     0.02900
C849        C  0.36371287  0.35834212  0.31262872    -0.22500
C850        C  0.38315683  0.35285531  0.29616131     0.12000
S851        S  0.40174778  0.32501693  0.26400749    -0.06100
C852        C  0.42398796  0.35956648  0.27350380    -0.09600
C853        C  0.41116364  0.37166063  0.29060578    -0.26200
S854        S  0.30755655  0.34002642  0.33433847    -0.03400
C855        C  0.28493526  0.30571972  0.32482063    -0.16900
C856        C  0.29859587  0.29243939  0.30817638    -0.14900
H857        H  0.34030071  0.28456517  0.27647714     0.20500
H858        H  0.37006357  0.37891445  0.32250740     0.16600
H859        H  0.42179423  0.39319460  0.29858389     0.19100
H860        H  0.28755466  0.27127831  0.30006908     0.12400
C861        C  0.65824214  0.09410456  0.38364931     0.16300
C862        C  0.63030362  0.08317983  0.39466921    -0.32800
C863        C  0.63219731  0.05050059  0.40300174     0.20700
C864        C  0.66045773  0.02937099  0.40037265     0.02900
C865        C  0.68840919  0.04031328  0.38931061    -0.22500
C866        C  0.68667050  0.07320109  0.38111623     0.12000
S867        S  0.66088974  0.13292488  0.37242396    -0.06100
C868        C  0.70090873  0.12107765  0.36430182    -0.09600
C869        C  0.71132353  0.08859214  0.37004362    -0.26200
S870        S  0.65807655  0.99094621  0.41215549    -0.03400
C871        C  0.61885725  0.00389316  0.42078976    -0.16900
C872        C  0.60820695  0.03596067  0.41472916    -0.14900
H873        H  0.60819314  0.09956096  0.39679907     0.20500
H874        H  0.71066725  0.02407829  0.38734153     0.16600
H875        H  0.73542361  0.07669545  0.36613966     0.19100
H876        H  0.58459324  0.04827041  0.41913362     0.12400
C877        C  0.67838692  0.27550343  0.31760799     0.16300
C878        C  0.65728606  0.30448096  0.31617078    -0.32800
C879        C  0.65703591  0.32205809  0.29881134     0.20700
C880        C  0.67703988  0.31139438  0.28359532     0.02900
C881        C  0.69921767  0.28335871  0.28529912    -0.22500
C882        C  0.69922091  0.26565650  0.30258418     0.12000
S883        S  0.67963839  0.24841905  0.33668106    -0.06100
C884        C  0.70900988  0.22407065  0.32434645    -0.09600
C885        C  0.71722063  0.23645667  0.30648171    -0.26200
S886        S  0.66913112  0.33256016  0.26290839    -0.03400
C887        C  0.63895304  0.35631597  0.27496998    -0.16900
C888        C  0.63566381  0.34850907  0.29403042    -0.14900
H889        H  0.64063494  0.31204457  0.32775913     0.20500
H890        H  0.71454025  0.27468296  0.27338579     0.16600
H891        H  0.73463514  0.22409036  0.29661490     0.19100
H892        H  0.61656129  0.35947284  0.30342572     0.12400
C893        C  0.11281529  0.57482666  0.04354502     0.16300
C894        C  0.11663247  0.59934693  0.05811271    -0.32800
C895        C  0.14752688  0.59951879  0.06838582     0.20700
C896        C  0.17348977  0.57630978  0.06431925     0.02900
C897        C  0.16978280  0.55192004  0.04967663    -0.22500
C898        C  0.13888115  0.55173321  0.03941891     0.12000
S899        S  0.07689987  0.56980990  0.02982921    -0.06100
C900        C  0.09729114  0.53641024  0.01839576    -0.09600
C901        C  0.13012490  0.52961128  0.02491793    -0.26200
S902        S  0.20847328  0.57991894  0.07881821    -0.03400
C903        C  0.18794308  0.61303631  0.09058061    -0.16900
C904        C  0.15574254  0.62080893  0.08337129    -0.14900
H905        H  0.09625134  0.61726362  0.06143232     0.20500
H906        H  0.18995172  0.53364540  0.04655503     0.16600
H907        H  0.14637456  0.50923372  0.01952497     0.19100
H908        H  0.13890716  0.64043728  0.08905222     0.12400
C909        C  0.37340461  0.55450902  0.15530168     0.16300
C910        C  0.34808869  0.55819665  0.14136907    -0.32800
C911        C  0.32406778  0.58450124  0.14392984     0.20700
C912        C  0.32551082  0.60639587  0.15955007     0.02900
C913        C  0.35106437  0.60298732  0.17335780    -0.22500
C914        C  0.37480229  0.57642306  0.17091925     0.12000
S915        S  0.40399440  0.52339719  0.15512925    -0.06100
C916        C  0.41869906  0.54003245  0.17633755    -0.09600
C917        C  0.40089665  0.56828099  0.18307555    -0.26200
S918        S  0.29354883  0.63596933  0.16044477    -0.03400
C919        C  0.27786363  0.61860142  0.13958477    -0.16900
C920        C  0.29674875  0.59144016  0.13233708    -0.14900
H921        H  0.34682968  0.54096027  0.12924612     0.20500
H922        H  0.35203330  0.61991531  0.18562011     0.16600
H923        H  0.40661173  0.58194663  0.19615275     0.19100
H924        H  0.29058288  0.57727881  0.11948319     0.12400
C925        C  0.19757261  0.09096406  0.16268248     0.16300
C926        C  0.22726432  0.11107386  0.16054703    -0.32800
C927        C  0.24492441  0.10878375  0.14330255     0.20700
C928        C  0.23373045  0.08751256  0.12866710     0.02900
C929        C  0.20333875  0.06789490  0.13063327    -0.22500
C930        C  0.18553144  0.07017829  0.14800138     0.12000
S931        S  0.17512763  0.08743569  0.18334275    -0.06100
C932        C  0.14878363  0.05793753  0.17216867    -0.09600
C933        C  0.15689288  0.05151601  0.15329873    -0.26200
S934        S  0.26033933  0.08768279  0.10919206    -0.03400
C935        C  0.28619475  0.11720995  0.12093207    -0.16900
C936        C  0.27464370  0.12587718  0.13893163    -0.14900
H937        H  0.23676272  0.12713053  0.17205450     0.20500
H938        H  0.19443511  0.05102976  0.11934189     0.16600
H939        H  0.14419047  0.03237857  0.14445306     0.19100
H940        H  0.28748886  0.14380379  0.14846507     0.12400
C941        C  0.17045061  0.12614887  0.28530043     0.16300
C942        C  0.19425133  0.15275913  0.28877376    -0.32800
C943        C  0.18696892  0.17589853  0.30358453     0.20700
C944        C  0.15741696  0.17280277  0.31448308     0.02900
C945        C  0.13367922  0.14620648  0.31102784    -0.22500
C946        C  0.14093166  0.12310002  0.29623603     0.12000
S947        S  0.17419634  0.09540662  0.26793039    -0.06100
C948        C  0.13556194  0.07844909  0.27555557    -0.09600
C949        C  0.12089932  0.09577077  0.29072735    -0.26200
S950        S  0.15320929  0.20367078  0.33169604    -0.03400
C951        C  0.19169229  0.22098493  0.32410879    -0.16900
C952        C  0.20674892  0.20347365  0.30906236    -0.14900
H953        H  0.21735299  0.15537880  0.28029445     0.20500
H954        H  0.11051812  0.14366833  0.31946429     0.16600
H955        H  0.09669511  0.08879917  0.29735525     0.19100
H956        H  0.23084567  0.21065614  0.30238075     0.12400
C957        C  0.90487260  0.09085181  0.30664516     0.16300
C958        C  0.88233941  0.09651860  0.32191805    -0.32800
C959        C  0.85191825  0.11457948  0.31817639     0.20700
C960        C  0.84509369  0.12748693  0.30022884     0.02900
C961        C  0.86752546  0.12195916  0.28509250    -0.22500
C962        C  0.89712555  0.10294276  0.28865295     0.12000
S963        S  0.94115911  0.06626821  0.30749598    -0.06100
C964        C  0.94468540  0.07128154  0.28327042    -0.09600
C965        C  0.91983451  0.09186133  0.27524283    -0.26200
S966        S  0.80731090  0.14872268  0.29827287    -0.03400
C967        C  0.79981606  0.13944620  0.32175622    -0.16900
C968        C  0.82559190  0.12106943  0.33067557    -0.14900
H969        H  0.88764407  0.08623154  0.33587295     0.20500
H970        H  0.86154449  0.13107891  0.27096821     0.16600
H971        H  0.91721500  0.09657489  0.26016510     0.19100
H972        H  0.82519678  0.11325545  0.34541680     0.12400
C973        C  0.12554014  0.79992257  0.15783364     0.16300
C974        C  0.12803376  0.77407543  0.14392208    -0.32800
C975        C  0.15183734  0.74769742  0.14693302     0.20700
C976        C  0.17201776  0.74708873  0.16315905     0.02900
C977        C  0.16935494  0.77274476  0.17711814    -0.22500
C978        C  0.14581373  0.79924113  0.17402279     0.12000
S979        S  0.09886481  0.83449122  0.15660426    -0.06100
C980        C  0.11536599  0.84824479  0.17804946    -0.09600
C981        C  0.14013077  0.82699156  0.18570482    -0.26200
S982        S  0.20027228  0.71394410  0.16394147    -0.03400
C983        C  0.18503390  0.70066989  0.14208848    -0.16900
C984        C  0.15901928  0.72087961  0.13477742    -0.14900
H985        H  0.11244964  0.77476860  0.13120205     0.20500
H986        H  0.18533923  0.77235624  0.18969567     0.16600
H987        H  0.15326738  0.83161688  0.19903462     0.19100
H988        H  0.14679782  0.71679811  0.12113905     0.12400
C989        C  0.96644183  0.35774181  0.04349946     0.16300
C990        C  0.96231385  0.33254929  0.05767013    -0.32800
C991        C  0.93225059  0.33361111  0.06876557     0.20700
C992        C  0.90738690  0.35842485  0.06570220     0.02900
C993        C  0.91153842  0.38352850  0.05161854    -0.22500
C994        C  0.94160760  0.38271237  0.04069987     0.12000
S995        S  0.00118896  0.36155465  0.02870553    -0.06100
C996        C  0.98206861  0.39735070  0.01893555    -0.09600
C997        C  0.95046153  0.40552603  0.02666133    -0.26200
S998        S  0.87286392  0.35574865  0.08053606    -0.03400
C999        C  0.89204737  0.32102218  0.09132108    -0.16900
C1000       C  0.92359693  0.31198886  0.08351593    -0.14900
H1001       H  0.98177165  0.31320820  0.06004508     0.20500
H1002       H  0.89224567  0.40309033  0.04937845     0.16600
H1003       H  0.93500326  0.42724164  0.02232921     0.19100
H1004       H  0.93943765  0.29098991  0.08845118     0.12400
C1005       C  0.95920359  0.14148315  0.16208767     0.16300
C1006       C  0.95834500  0.16871950  0.14902801    -0.32800
C1007       C  0.93057656  0.19148469  0.15010879     0.20700
C1008       C  0.90535593  0.18764780  0.16389804     0.02900
C1009       C  0.90669334  0.16103172  0.17723805    -0.22500
C1010       C  0.93394052  0.13784829  0.17586913     0.12000
S1011       S  0.98874720  0.10924736  0.16196216    -0.06100
C1012       C  0.96659500  0.09060076  0.18052338    -0.09600
C1013       C  0.93821371  0.10882273  0.18663207    -0.26200
S1014       S  0.87267499  0.21621555  0.16226073    -0.03400
C1015       C  0.89286779  0.23361851  0.14265781    -0.16900
C1016       C  0.92368249  0.21811733  0.13787958    -0.14900
H1017       H  0.97774196  0.17126889  0.13807904     0.20500
H1018       H  0.88665121  0.15778349  0.18777760     0.16600
H1019       H  0.92103411  0.10070547  0.19790079     0.19100
H1020       H  0.93960812  0.22528704  0.12588932     0.12400
C1021       C  0.74306521  0.31508307  0.15359275     0.16300
C1022       C  0.71430421  0.31381573  0.16551371    -0.32800
C1023       C  0.69141954  0.34142371  0.16476144     0.20700
C1024       C  0.69662844  0.36883710  0.15243243     0.02900
C1025       C  0.72522487  0.36988113  0.14029276    -0.22500
C1026       C  0.74844317  0.34243729  0.14124621     0.12000
S1027       S  0.77460128  0.28503152  0.15334783    -0.06100
C1028       C  0.79552741  0.30939574  0.13640294    -0.09600
C1029       C  0.77855725  0.33924246  0.13119762    -0.26200
S1030       S  0.66649071  0.40037158  0.15416594    -0.03400
C1031       C  0.64706803  0.37657825  0.17186993    -0.16900
C1032       C  0.66291932  0.34565750  0.17593858    -0.14900
H1033       H  0.71037791  0.29260633  0.17527761     0.20500
H1034       H  0.72954668  0.39145874  0.13082855     0.16600
H1035       H  0.78806938  0.35788939  0.12100742     0.19100
H1036       H  0.65438621  0.32755868  0.18667350     0.12400
C1037       C  0.46035485  0.84172335  0.39884762     0.16300
C1038       C  0.45136787  0.81368980  0.38723625    -0.32800
C1039       C  0.41751644  0.81189999  0.38051795     0.20700
C1040       C  0.39368030  0.83713443  0.38489197     0.02900
C1041       C  0.40262617  0.86521044  0.39656293    -0.22500
C1042       C  0.43642112  0.86674531  0.40350021     0.12000
S1043       S  0.49975060  0.84760904  0.40906641    -0.06100
C1044       C  0.48362977  0.88379018  0.41996547    -0.09600
C1045       C  0.44970509  0.89105173  0.41567601    -0.26200
S1046       S  0.35428147  0.83064902  0.37471448    -0.03400
C1047       C  0.37011875  0.79339087  0.36458120    -0.16900
C1048       C  0.40408598  0.78662948  0.36904006    -0.14900
H1049       H  0.46988434  0.79393854  0.38372643     0.20500
H1050       H  0.38404146  0.88483877  0.40017434     0.16600
H1051       H  0.43533577  0.91229930  0.42166984     0.19100
H1052       H  0.41858169  0.76491942  0.36367800     0.12400
C1053       C  0.22936680  0.79983599  0.29899371     0.16300
C1054       C  0.20751862  0.80821352  0.28399649    -0.32800
C1055       C  0.18092941  0.83133968  0.28772216     0.20700
C1056       C  0.17551459  0.84484944  0.30572722     0.02900
C1057       C  0.19751273  0.83647665  0.32080534    -0.22500
C1058       C  0.22488343  0.81405788  0.31691937     0.12000
S1059       S  0.26388052  0.77342123  0.29692182    -0.06100
C1060       C  0.27322078  0.78221064  0.32032922    -0.09600
C1061       C  0.25030957  0.80423698  0.32926461    -0.26200
S1062       S  0.14247426  0.87367414  0.30693137    -0.03400
C1063       C  0.13703213  0.86823067  0.28282413    -0.16900
C1064       C  0.15905653  0.84474234  0.27455147    -0.14900
H1065       H  0.21168146  0.79790548  0.26987695     0.20500
H1066       H  0.19406886  0.84771624  0.33476561     0.16600
H1067       H  0.25227670  0.81269991  0.34389244     0.19100
H1068       H  0.16003172  0.83896960  0.25950433     0.12400
C1069       C  0.37792055  0.65072083  0.29826476     0.16300
C1070       C  0.38311209  0.62716542  0.28352372    -0.32800
C1071       C  0.40217437  0.59766901  0.28749816     0.20700
C1072       C  0.41538186  0.59146860  0.30542464     0.02900
C1073       C  0.41036864  0.61533286  0.32026770    -0.22500
C1074       C  0.39148459  0.64527122  0.31620379     0.12000
S1075       S  0.35475550  0.68745931  0.29604408    -0.06100
C1076       C  0.36329278  0.69612292  0.31953334    -0.09600
C1077       C  0.38356818  0.67174447  0.32851967    -0.26200
S1078       S  0.43968146  0.55482965  0.30671620    -0.03400
C1079       C  0.43278609  0.54890762  0.28273512    -0.16900
C1080       C  0.41183917  0.57334337  0.27453955    -0.14900
H1081       H  0.37301716  0.63184529  0.26944984     0.20500
H1082       H  0.42110103  0.61102364  0.33422657     0.16600
H1083       H  0.39109125  0.67278881  0.34330646     0.19100
H1084       H  0.40603549  0.57464202  0.25952010     0.12400
C1085       C  0.66846791  0.80880632  0.06133989     0.16300
C1086       C  0.64389816  0.81433125  0.04715034    -0.32800
C1087       C  0.63674367  0.84859641  0.04221272     0.20700
C1088       C  0.65339882  0.87621858  0.05089842     0.02900
C1089       C  0.67830089  0.87066396  0.06493248    -0.22500
C1090       C  0.68542139  0.83637270  0.06990373     0.12000
S1091       S  0.67907239  0.76933221  0.07026741    -0.06100
C1092       C  0.70669471  0.79015189  0.08572839    -0.09600
C1093       C  0.70777601  0.82578221  0.08371165    -0.26200
S1094       S  0.64154285  0.91580272  0.04251359    -0.03400
C1095       C  0.61429691  0.89483382  0.02693084    -0.16900
C1096       C  0.61412532  0.85912962  0.02856203    -0.14900
H1097       H  0.63067321  0.79287164  0.04038470     0.20500
H1098       H  0.69142520  0.89212664  0.07175100     0.16600
H1099       H  0.72283773  0.84316154  0.09252845     0.19100
H1100       H  0.59925966  0.84179621  0.01961698     0.12400
C1101       C  0.68059984  0.64052398  0.13564716     0.16300
C1102       C  0.65911006  0.61130199  0.13632555    -0.32800
C1103       C  0.65500007  0.59488756  0.15390620     0.20700
C1104       C  0.67195211  0.60676551  0.17001297     0.02900
C1105       C  0.69441777  0.63513888  0.16916879    -0.22500
C1106       C  0.69805265  0.65188211  0.15168544     0.12000
S1107       S  0.68572476  0.66652114  0.11630887    -0.06100
C1108       C  0.71169575  0.69291356  0.12997903    -0.09600
C1109       C  0.71633253  0.68165088  0.14844954    -0.26200
S1110       S  0.66018040  0.58645956  0.19044996    -0.03400
C1111       C  0.63229462  0.56159520  0.17717605    -0.16900
C1112       C  0.63259556  0.56835953  0.15789305    -0.14900
H1113       H  0.64493674  0.60275759  0.12392138     0.20500
H1114       H  0.70714870  0.64481378  0.18180275     0.16600
H1115       H  0.73103842  0.69534709  0.15918645     0.19100
H1116       H  0.61553150  0.55634596  0.14762700     0.12400
C1117       C  0.83313535  0.81188458  0.15896328     0.16300
C1118       C  0.85261532  0.82351915  0.17444899    -0.32800
C1119       C  0.88182911  0.84373175  0.17062837     0.20700
C1120       C  0.89171652  0.85150558  0.15220300     0.02900
C1121       C  0.87188331  0.84033384  0.13669970    -0.22500
C1122       C  0.84220376  0.82070181  0.14054854     0.12000
S1123       S  0.79700546  0.78680156  0.16065979    -0.06100
C1124       C  0.79337607  0.78916930  0.13635589    -0.09600
C1125       C  0.81913033  0.80810200  0.12749307    -0.26200
S1126       S  0.92826293  0.87618550  0.15066912    -0.03400
C1127       C  0.92950641  0.87679376  0.17510433    -0.16900
C1128       C  0.90323109  0.85845718  0.18382064    -0.14900
H1129       H  0.84519181  0.81728720  0.18886143     0.20500
H1130       H  0.87908261  0.84691028  0.12230124     0.16600
H1131       H  0.82106170  0.81202969  0.11231659     0.19100
H1132       H  0.89963665  0.85655796  0.19902997     0.12400
C1133       C  0.89032967  0.59060186  0.38516753     0.16300
C1134       C  0.89804961  0.56509910  0.39855032    -0.32800
C1135       C  0.92970254  0.56770320  0.40802013     0.20700
C1136       C  0.95270486  0.59442725  0.40431826     0.02900
C1137       C  0.94489938  0.61996674  0.39101593    -0.22500
C1138       C  0.91324566  0.61742088  0.38159463     0.12000
S1139       S  0.85354479  0.59197317  0.37194666    -0.06100
C1140       C  0.86917897  0.62921259  0.36157778    -0.09600
C1141       C  0.90121556  0.63968416  0.36814536    -0.26200
S1142       S  0.98990642  0.59285990  0.41714666    -0.03400
C1143       C  0.97419401  0.55593229  0.42763997    -0.16900
C1144       C  0.94191954  0.54551395  0.42147871    -0.14900
H1145       H  0.88023366  0.54411863  0.40141804     0.20500
H1146       H  0.96275935  0.64088721  0.38810105     0.16600
H1147       H  0.91516897  0.66224756  0.36320851     0.19100
H1148       H  0.92827629  0.52289359  0.42658555     0.12400
C1149       C  0.68782749  0.56029962  0.29649110     0.16300
C1150       C  0.71422644  0.56448750  0.30977665    -0.32800
C1151       C  0.73342597  0.59515159  0.30914645     0.20700
C1152       C  0.72674572  0.62052944  0.29583381     0.02900
C1153       C  0.70036698  0.61630880  0.28247138    -0.22500
C1154       C  0.68107183  0.58561487  0.28314391     0.12000
S1155       S  0.66133120  0.52519857  0.29528644    -0.06100
C1156       C  0.64075574  0.54482075  0.27667142    -0.09600
C1157       C  0.65403066  0.57678316  0.27160889    -0.26200
S1158       S  0.75331017  0.65562302  0.29729870    -0.03400
C1159       C  0.77373500  0.63574945  0.31598171    -0.16900
C1160       C  0.76029810  0.60376560  0.32079547    -0.14900
H1161       H  0.71950767  0.54472919  0.32018943     0.20500
H1162       H  0.69509495  0.63606383  0.27205441     0.16600
H1163       H  0.64415592  0.59281857  0.26032630     0.19100
H1164       H  0.77003504  0.58741811  0.33197775     0.12400
C1165       C  0.87415237  0.77575625  0.29834218     0.16300
C1166       C  0.87773118  0.80272192  0.28528109    -0.32800
C1167       C  0.90750241  0.82320769  0.28641725     0.20700
C1168       C  0.93247426  0.81723658  0.30004433     0.02900
C1169       C  0.92898463  0.79015181  0.31303643    -0.22500
C1170       C  0.89930762  0.76954884  0.31182357     0.12000
S1171       S  0.84027001  0.74767337  0.29903587    -0.06100
C1172       C  0.86042850  0.72696073  0.31750580    -0.09600
C1173       C  0.89156174  0.74156135  0.32290944    -0.26200
S1174       S  0.96654471  0.84507566  0.29921161    -0.03400
C1175       C  0.94716150  0.86471258  0.28015841    -0.16900
C1176       C  0.91585083  0.85044367  0.27488282    -0.14900
H1177       H  0.85826116  0.80739880  0.27463825     0.20500
H1178       H  0.94860835  0.78526177  0.32356358     0.16600
H1179       H  0.90796176  0.73182690  0.33405920     0.19100
H1180       H  0.90012701  0.85945500  0.26326059     0.12400
loop_ 
_geom_bond_atom_site_label_1 
_geom_bond_atom_site_label_2 
_geom_bond_distance 
_geom_bond_site_symmetry_2 
_ccdc_geom_bond_type 
C1            N2   1.354       .  A
C1            N6   1.360       .  A
C1         C1159   1.469       .  S
N2            C3   1.354       .  A
C3            N4   1.358       .  A
C3         C1172   1.469       .  S
N4            C5   1.360       .  A
C5            N6   1.360       .  A
C5         C1140   1.474       .  S
C7            N8   1.358       .  A
C7           N12   1.359       .  A
C7         C1108   1.472       .  S
N8            C9   1.357       .  A
C9           N10   1.359       .  A
C9         C1124   1.468       .  S
N10          C11   1.360       .  A
C11          N12   1.359       .  A
C11        C1092   1.475       .  S
C13          N14   1.354       .  A
C13          N18   1.358       .  A
C13        C1076   1.471       .  S
N14          C15   1.354       .  A
C15          N16   1.358       .  A
C15        C1060   1.470       .  S
N16          C17   1.362       .  A
C17          N18   1.364       .  A
C17        C1047   1.474       .  S
C19          N20   1.366       .  A
C19          N24   1.365       .  A
C19         C999   1.479       .  S
N20          C21   1.362       .  A
C21          N22   1.351       .  A
C21        C1015   1.471       .  S
N22          C23   1.349       .  A
C23          N24   1.358       .  A
C23        C1028   1.471       .  S
N25          N26   1.323       .  A
N25          N31   1.317       .  A
N25         Mn54   2.223       .  S
N26          C33   1.356       .  A
N27          N29   1.314   1_455  A
N27          N28   1.322   1_455  A
N27         Mn43   2.199   1_545  S
N28          C34   1.353       .  A
N29          N30   1.317       .  A
N29         Mn54   2.187   1_545  S
N30          C34   1.350       .  A
N31          N32   1.316       .  A
N31         Mn43   2.183   1_655  S
N32          C33   1.348       .  A
C33        C1175   1.467       .  S
C34         C964   1.464       .  S
N35          N41   1.317       .  A
N35          N36   1.324       .  A
N35         Mn65   2.222   1_545  S
N36          C44   1.356       .  A
N37          N38   1.322       .  A
N37          N39   1.315       .  A
N37         Mn43   2.200       .  S
N38          C45   1.353       .  A
N39          N40   1.318       .  A
N39         Mn65   2.192       .  S
N40          C45   1.350       .  A
N41          N42   1.316       .  A
N41         Mn43   2.183   1_545  S
N42          C44   1.349       .  A
Mn43        Cl67   2.556       .  S
C44         C948   1.468       .  S
C45        C1063   1.466       .  S
N46          N47   1.322       .  A
N46          N52   1.317   1_655  A
N46         Mn54   2.219   1_545  S
N47          C55   1.355       .  A
N48          N50   1.315       .  A
N48          N49   1.322       .  A
N48         Mn66   2.206   1_655  S
N49          C56   1.353       .  A
N50          N51   1.318       .  A
N50         Mn54   2.191       .  S
N51          C56   1.350       .  A
N52          N53   1.317       .  A
N52         Mn66   2.186   1_545  S
N53          C55   1.349   1_455  A
Mn54        Cl67   2.533   1_655  S
C55        C1012   1.467       .  S
C56        C1127   1.468       .  S
N57          N58   1.323       .  A
N57          N63   1.317       .  A
N57         Mn65   2.223       .  S
N58          C68   1.356       .  A
N59          N60   1.324       .  A
N59          N61   1.315       .  A
N59         Mn66   2.205   1_545  S
N60          C69   1.354       .  A
N61          N62   1.317       .  A
N61         Mn65   2.191   1_545  S
N62          C69   1.349       .  A
N63          N64   1.317       .  A
N63         Mn66   2.184       .  S
N64          C68   1.349       .  A
Mn65        Cl67   2.532       .  S
Mn66        Cl67   2.561       .  S
C68         C980   1.467       .  S
C69         C932   1.465       .  S
C70          N71   1.362       .  A
C70          N75   1.366       .  A
C70         C903   1.477       .  S
N71          C72   1.357       .  A
C72          N73   1.349       .  A
C72         C919   1.467       .  S
N73          C74   1.351       .  A
C74          N75   1.362       .  A
C74         C983   1.471       .  S
C76          N77   1.359       .  A
C76          N81   1.352       .  A
C76         C967   1.463       .  S
N77          C78   1.363       .  A
C78          N79   1.361       .  A
C78         C868   1.471       .  S
N79          C80   1.356       .  A
C80          N81   1.351       .  A
C80         C884   1.465       .  S
C82          N83   1.362       .  A
C82          N87   1.359       .  A
C82         C839   1.473       .  S
N83          C84   1.361       .  A
C84          N85   1.354       .  A
C84         C951   1.470       .  S
N85          C86   1.353       .  A
C86          N87   1.355       .  A
C86         C855   1.468       .  S
C88          N89   1.361       .  A
C88          N93   1.368       .  A
C88         C807   1.476       .  S
N89          C90   1.354       .  A
C90          N91   1.351       .  A
C90         C823   1.466       .  S
N91          C92   1.354       .  A
C92          N93   1.363       .  A
C92         C935   1.476       .  S
N94          N95   1.318       .  A
N94         N100   1.315       .  A
N94        Mn123   2.187       .  S
N95         C102   1.349       .  A
N96          N98   1.317       .  A
N96          N97   1.315       .  A
N96        Mn112   2.179       .  S
N97         C103   1.347       .  A
N98          N99   1.325       .  A
N98        Mn123   2.226       .  S
N99         C103   1.357       .  A
N100        N101   1.322       .  A
N100       Mn112   2.204       .  S
N101        C102   1.353       .  A
C102        C887   1.461       .  S
C103        C852   1.467       .  S
N104        N110   1.315       .  A
N104        N105   1.316       .  A
N104       Mn134   2.188       .  S
N105        C113   1.349       .  A
N106        N107   1.317       .  A
N106        N108   1.316       .  A
N106       Mn112   2.187       .  S
N107        C114   1.350       .  A
N108        N109   1.321       .  A
N108       Mn134   2.207       .  S
N109        C114   1.353       .  A
N110        N111   1.325       .  A
N110       Mn112   2.212       .  S
N111        C113   1.355       .  A
Mn112      Cl136   2.555       .  S
C113       C1079   1.468       .  S
C114       C1156   1.464       .  S
N115        N116   1.318       .  A
N115        N121   1.315       .  A
N115       Mn123   2.191       .  S
N116        C124   1.351       .  A
N117        N119   1.316       .  A
N117        N118   1.316       .  A
N117       Mn135   2.179       .  S
N118        C125   1.348       .  A
N119        N120   1.323       .  A
N119       Mn123   2.222       .  S
N120        C125   1.357       .  A
N121        N122   1.320       .  A
N121       Mn135   2.194       .  S
N122        C124   1.350       .  A
Mn123      Cl136   2.536       .  S
C124        C820   1.460       .  S
C125       C1031   1.467       .  S
N126        N127   1.317       .  A
N126        N132   1.314       .  A
N126       Mn134   2.186       .  S
N127        C137   1.349       .  A
N128        N129   1.315       .  A
N128        N130   1.315       .  A
N128       Mn135   2.177       .  S
N129        C138   1.348       .  A
N130        N131   1.322       .  A
N130       Mn134   2.210       .  S
N131        C138   1.355       .  A
N132        N133   1.322       .  A
N132       Mn135   2.199       .  S
N133        C137   1.353       .  A
Mn134      Cl136   2.531       .  S
Mn135      Cl136   2.550       .  S
C137       C1111   1.463       .  S
C138        C916   1.462       .  S
N139        C144   1.350       .  A
N139        C143   1.353       .  A
N139        H171   1.034       .  S
N140        C147   1.352       .  A
N140        C148   1.350       .  A
N141        C146   1.353       .  A
N141        C145   1.352       .  A
N141        H172   1.035       .  S
N142        C149   1.351       .  A
N142        C150   1.351       .  A
C143        C151   1.387       .  A
C143        C159   1.414       .  A
C144        C160   1.413       .  A
C144        C152   1.388       .  A
C145        C153   1.388       .  A
C145        C162   1.416       .  A
C146        C161   1.414       .  A
C146        C154   1.386       .  A
C147        C159   1.413       .  A
C147        C155   1.385   1_565  A
C148        C162   1.414       .  A
C148        C156   1.388   1_565  A
C149        C157   1.387       .  A
C149        C160   1.412       .  A
C150        C158   1.387       .  A
C150        C161   1.412       .  A
C151        C152   1.376       .  A
C151        H163   1.082       .  S
C152        H164   1.082       .  S
C153        C154   1.376       .  A
C153        H165   1.082       .  S
C154        H166   1.082       .  S
C155        C156   1.371       .  A
C155        H167   1.082       .  S
C156        H168   1.082       .  S
C157        C158   1.371       .  A
C157        H169   1.082       .  S
C158        H170   1.082       .  S
C159        C772   1.479   1_565  S
C160        C791   1.471       .  S
C161       C1044   1.477       .  S
C162        C871   1.474   1_565  S
N173        C178   1.353   1_556  A
N173        C177   1.354   1_556  A
N173        H205   1.031       .  S
N174        C181   1.354   1_455  A
N174        C182   1.353   1_455  A
N175        C180   1.354       .  A
N175        C179   1.355       .  A
N175        H206   1.034       .  S
N176        C183   1.353       .  A
N176        C184   1.352       .  A
C177        C185   1.388       .  A
C177        C193   1.419   1_455  A
C178        C194   1.419       .  A
C178        C186   1.388       .  A
C179        C187   1.387       .  A
C179        C196   1.419   1_455  A
C180        C195   1.419       .  A
C180        C188   1.388       .  A
C181        C193   1.417   1_556  A
C181        C189   1.386       .  A
C182        C196   1.417       .  A
C182        C190   1.387       .  A
C183        C191   1.386       .  A
C183        C194   1.417   1_556  A
C184        C192   1.388       .  A
C184        C195   1.417       .  A
C185        C186   1.375       .  A
C185        H197   1.082       .  S
C186        H198   1.082       .  S
C187        C188   1.378       .  A
C187        H199   1.082       .  S
C188        H200   1.082       .  S
C189        C190   1.372       .  A
C189        H201   1.082       .  S
C190        H202   1.082       .  S
C191        C192   1.372       .  A
C191        H203   1.082       .  S
C192        H204   1.082       .  S
C193        C996   1.484       .  S
C194        C900   1.482       .  S
C195        C740   1.482       .  S
C196        C756   1.484       .  S
N207        C212   1.353       .  A
N207        C211   1.353       .  A
N207        H239   1.032       .  S
N208        C215   1.352       .  A
N208        C216   1.352       .  A
N209        C214   1.353       .  A
N209        C213   1.354       .  A
N209        H240   1.035       .  S
N210        C217   1.352   1_455  A
N210        C218   1.351   1_455  A
C211        C219   1.387       .  A
C211        C227   1.417       .  A
C212        C228   1.418   1_455  A
C212        C220   1.388       .  A
C213        C221   1.387       .  A
C213        C230   1.416       .  A
C214        C229   1.417   1_455  A
C214        C222   1.388       .  A
C215        C227   1.417       .  A
C215        C223   1.387       .  A
C216        C230   1.415       .  A
C216        C224   1.387       .  A
C217        C225   1.387       .  A
C217        C228   1.415       .  A
C218        C226   1.387       .  A
C218        C229   1.415       .  A
C219        C220   1.375       .  A
C219        H231   1.082       .  S
C220        H232   1.082   1_455  S
C221        C222   1.376       .  A
C221        H233   1.082       .  S
C222        H234   1.082   1_455  S
C223        C224   1.369       .  A
C223        H235   1.082       .  S
C224        H236   1.082       .  S
C225        C226   1.371       .  A
C225        H237   1.082       .  S
C226        H238   1.082       .  S
C227        C836   1.479       .  S
C228       C1143   1.480       .  S
C229        C724   1.478       .  S
C230        C708   1.480       .  S
N241        C246   1.352       .  A
N241        C245   1.351       .  A
N241        H273   1.039       .  S
N242        C249   1.352   1_565  A
N242        C250   1.351   1_565  A
N243        C248   1.355       .  A
N243        C247   1.355       .  A
N243        H274   1.039   1_554  S
N244        C251   1.354       .  A
N244        C252   1.352       .  A
C245        C253   1.387       .  A
C245        C261   1.414       .  A
C246        C262   1.415       .  A
C246        C254   1.387       .  A
C247        C255   1.388       .  A
C247        C264   1.421   1_565  A
C248        C263   1.420       .  A
C248        C256   1.387       .  A
C249        C261   1.414   1_545  A
C249        C257   1.387       .  A
C250        C264   1.415   1_556  A
C250        C258   1.387       .  A
C251        C259   1.385       .  A
C251        C262   1.414       .  A
C252        C260   1.388       .  A
C252        C263   1.417   1_556  A
C253        C254   1.376       .  A
C253        H265   1.082       .  S
C254        H266   1.082       .  S
C255        C256   1.378       .  A
C255        H267   1.082       .  S
C256        H268   1.082       .  S
C257        C258   1.372       .  A
C257        H269   1.082       .  S
C258        H270   1.082       .  S
C259        C260   1.371       .  A
C259        H271   1.082       .  S
C260        H272   1.082       .  S
C261        C679   1.476   1_565  S
C262        C692   1.481       .  S
C263       C1095   1.487       .  S
C264        C804   1.481       .  S
C275        N276   1.359       .  A
C275        N280   1.351       .  A
C275        C663   1.470       .  S
N276        C277   1.362       .  A
C277        N278   1.362       .  A
C277        C695   1.476       .  S
N278        C279   1.360       .  A
C279        N280   1.353       .  A
C279        C644   1.468       .  S
C281        N282   1.357       .  A
C281        N286   1.360       .  A
C281        C628   1.475       .  S
N282        C283   1.358       .  A
C283        N284   1.360       .  A
C283        C612   1.474       .  S
N284        C285   1.361       .  A
C285        N286   1.361       .  A
C285        C759   1.479       .  S
C287        N288   1.361       .  A
C287        N292   1.363       .  A
C287        C676   1.471       .  S
N288        C289   1.354       .  A
C289        N290   1.349       .  A
C289        C583   1.464       .  S
N290        C291   1.350       .  A
C291        N292   1.361       .  A
C291        C596   1.467       .  S
C293        N294   1.359       .  A
C293        N298   1.355       .  A
C293        C564   1.468       .  S
N294        C295   1.362       .  A
C295        N296   1.361       .  A
C295        C743   1.475       .  S
N296        C297   1.358       .  A
C297        N298   1.356       .  A
C297        C548   1.472       .  S
C299        N300   1.364       .  A
C299        N304   1.361       .  A
C299        C711   1.475       .  S
N300        C301   1.360       .  A
C301        N302   1.355       .  A
C301        C516   1.474       .  S
N302        C303   1.352       .  A
C303        N304   1.357       .  A
C303        C535   1.469       .  S
C305        N306   1.361       .  A
C305        N310   1.365       .  A
C305        C775   1.475       .  S
N306        C307   1.357       .  A
C307        N308   1.351       .  A
C307        C487   1.465       .  S
N308        C309   1.350       .  A
C309        N310   1.361       .  A
C309        C500   1.471       .  S
N311        N312   1.320       .  A
N311        N317   1.316       .  A
N311       Mn340   2.207       .  S
N312        C319   1.353       .  A
N313        N315   1.314       .  A
N313        N314   1.323       .  A
N313       Mn329   2.214       .  S
N314        C320   1.355       .  A
N315        N316   1.320       .  A
N315       Mn340   2.193       .  S
N316        C320   1.350       .  A
N317        N318   1.318       .  A
N317       Mn329   2.185       .  S
N318        C319   1.350       .  A
C319        C647   1.463       .  S
C320        C631   1.470       .  S
N321        N327   1.316       .  A
N321        N322   1.320       .  A
N321       Mn351   2.204       .  S
N322        C330   1.353       .  A
N323        N324   1.325       .  A
N323        N325   1.315       .  A
N323       Mn329   2.211       .  S
N324        C331   1.355       .  A
N325        N326   1.315       .  A
N325       Mn351   2.185       .  S
N326        C331   1.348       .  A
N327        N328   1.315       .  A
N327       Mn329   2.177       .  S
N328        C330   1.348       .  A
Mn329      Cl353   2.560       .  S
C330        C580   1.458       .  S
C331        C551   1.466       .  S
N332        N333   1.317       .  A
N332        N338   1.316       .  A
N332       Mn340   2.202       .  S
N333        C341   1.352       .  A
N334        N336   1.314       .  A
N334        N335   1.322       .  A
N334       Mn352   2.201       .  S
N335        C342   1.353       .  A
N336        N337   1.318       .  A
N336       Mn340   2.188       .  S
N337        C342   1.349       .  A
N338        N339   1.319       .  A
N338       Mn352   2.182       .  S
N339        C341   1.350       .  A
Mn340      Cl353   2.527       .  S
C341        C484   1.461       .  S
C342        C468   1.463       .  S
N343        N344   1.322       .  A
N343        N349   1.316       .  A
N343       Mn351   2.212       .  S
N344        C354   1.354       .  A
N345        N346   1.320       .  A
N345        N347   1.314       .  A
N345       Mn352   2.194       .  S
N346        C355   1.351       .  A
N347        N348   1.319       .  A
N347       Mn351   2.189       .  S
N348        C355   1.350       .  A
N349        N350   1.315       .  A
N349       Mn352   2.183       .  S
N350        C354   1.349       .  A
Mn351      Cl353   2.530       .  S
Mn352      Cl353   2.553       .  S
C354        C452   1.463       .  S
C355        C532   1.460       .  S
C356        N357   1.356       .  A
C356        N361   1.359       .  A
C356        C471   1.467       .  S
N357        C358   1.353       .  A
C358        N359   1.354       .  A
C358        C439   1.459       .  S
N359        C360   1.356       .  A
C360        N361   1.361       .  A
C360        C727   1.468       .  S
C362        N363   1.361       .  A
C362        N367   1.356       .  A
C362        C788   1.466       .  S
N363        C364   1.360       .  A
C364        N365   1.356       .  A
C364        C423   1.469       .  S
N365        C366   1.354       .  A
C366        N367   1.353       .  A
C366        C455   1.466       .  S
N368        N369   1.318   1_455  A
N368        N374   1.314       .  A
N368       Mn397   2.185       .  S
N369        C376   1.349       .  A
N370        N372   1.317       .  A
N370        N371   1.313       .  A
N370       Mn386   2.165   1_545  S
N371        C377   1.344       .  A
N372        N373   1.324       .  A
N372       Mn397   2.226       .  S
N373        C377   1.358       .  A
N374        N375   1.323   1_455  A
N374       Mn386   2.211   1_545  S
N375        C376   1.355       .  A
C376        C615   1.464       .  S
C377        C599   1.462       .  S
N378        N384   1.315       .  A
N378        N379   1.317       .  A
N378       Mn408   2.179       .  S
N379        C387   1.349       .  A
N380        N381   1.314       .  A
N380        N382   1.316       .  A
N380       Mn386   2.168   1_655  S
N381        C388   1.346       .  A
N382        N383   1.324       .  A
N382       Mn408   2.227   1_655  S
N383        C388   1.358       .  A
N384        N385   1.325       .  A
N384       Mn386   2.221       .  S
N385        C387   1.356       .  A
Mn386      Cl410   2.550       .  S
C387        C567   1.472       .  S
C388        C660   1.465       .  S
N389        N390   1.317       .  A
N389        N395   1.315       .  A
N389       Mn397   2.192       .  S
N390        C398   1.349       .  A
N391        N393   1.316       .  A
N391        N392   1.316   1_455  A
N391       Mn409   2.178   1_545  S
N392        C399   1.348       .  A
N393        N394   1.324   1_455  A
N393       Mn397   2.221       .  S
N394        C399   1.356       .  A
N395        N396   1.324       .  A
N395       Mn409   2.204   1_545  S
N396        C398   1.354       .  A
Mn397      Cl410   2.534   1_545  S
C398        C519   1.465       .  S
C399        C503   1.467       .  S
N400        N401   1.315       .  A
N400        N406   1.314   1_655  A
N400       Mn408   2.176   1_655  S
N401        C411   1.348       .  A
N402        N403   1.316       .  A
N402        N404   1.317       .  A
N402       Mn409   2.180       .  S
N403        C412   1.347       .  A
N404        N405   1.323       .  A
N404       Mn408   2.225       .  S
N405        C412   1.357       .  A
N406        N407   1.321   1_455  A
N406       Mn409   2.195       .  S
N407        C411   1.352       .  A
Mn408      Cl410   2.535       .  S
Mn409      Cl410   2.554       .  S
C411        C436   1.456       .  S
C412        C420   1.466       .  S
C413        C418   1.388       .  A
C413        C414   1.402       .  A
C413        S419   1.703       .  A
C414        C415   1.401       .  A
C414        H425   1.083       .  S
C415        C424   1.372       .  A
C415        C416   1.387       .  A
C416        C417   1.399       .  A
C416        S422   1.700       .  A
C417        C418   1.398       .  A
C417        H426   1.083       .  S
C418        C421   1.370       .  A
S419        C420   1.723       .  A
C420        C421   1.382       .  A
C421        H427   1.083       .  S
S422        C423   1.722       .  A
C423        C424   1.387       .  A
C424        H428   1.083       .  S
C429        C434   1.388       .  A
C429        C430   1.399       .  A
C429        S435   1.707       .  A
C430        C431   1.401       .  A
C430        H441   1.083       .  S
C431        C440   1.366       .  A
C431        C432   1.388       .  A
C432        C433   1.395       .  A
C432        S438   1.702       .  A
C433        C434   1.397       .  A
C433        H442   1.083       .  S
C434        C437   1.361       .  A
S435        C436   1.719       .  A
C436        C437   1.380       .  A
C437        H443   1.084       .  S
S438        C439   1.719       .  A
C439        C440   1.383       .  A
C440        H444   1.083       .  S
C445        C450   1.387       .  A
C445        C446   1.399       .  A
C445        S451   1.709       .  A
C446        C447   1.401       .  A
C446        H457   1.083       .  S
C447        C456   1.366       .  A
C447        C448   1.387       .  A
C448        C449   1.397       .  A
C448        S454   1.704       .  A
C449        C450   1.399       .  A
C449        H458   1.083       .  S
C450        C453   1.363       .  A
S451        C452   1.721       .  A
C452        C453   1.383       .  A
C453        H459   1.083       .  S
S454        C455   1.722       .  A
C455        C456   1.385       .  A
C456        H460   1.083       .  S
C461        C466   1.388       .  A
C461        C462   1.396       .  A
C461        S467   1.703       .  A
C462        C463   1.398       .  A
C462        H473   1.083       .  S
C463        C472   1.363       .  A
C463        C464   1.387       .  A
C464        C465   1.404       .  A
C464        S470   1.713       .  A
C465        C466   1.406       .  A
C465        H474   1.083       .  S
C466        C469   1.371       .  A
S467        C468   1.718       .  A
C468        C469   1.386       .  A
C469        H475   1.083       .  S
S470        C471   1.724       .  A
C471        C472   1.383       .  A
C472        H476   1.083       .  S
C477        C482   1.387       .  A
C477        C478   1.403       .  A
C477        S483   1.708       .  A
C478        C479   1.403       .  A
C478        H489   1.083       .  S
C479        C488   1.371       .  A
C479        C480   1.388       .  A
C480        C481   1.393       .  A
C480        S486   1.694       .  A
C481        C482   1.394       .  A
C481        H490   1.083       .  S
C482        C485   1.361       .  A
S483        C484   1.723       .  A
C484        C485   1.379       .  A
C485        H491   1.083       .  S
S486        C487   1.721       .  A
C487        C488   1.386       .  A
C488        H492   1.083       .  S
C493        C498   1.387       .  A
C493        C494   1.402       .  A
C493        S499   1.701       .  A
C494        C495   1.401       .  A
C494        H505   1.083       .  S
C495        C504   1.373       .  A
C495        C496   1.388       .  A
C496        C497   1.400       .  A
C496        S502   1.700       .  A
C497        C498   1.399       .  A
C497        H506   1.083       .  S
C498        C501   1.372       .  A
S499        C500   1.727       .  A
C500        C501   1.383       .  A
C501        H507   1.083       .  S
S502        C503   1.721       .  A
C503        C504   1.385       .  A
C504        H508   1.083       .  S
C509        C514   1.386       .  A
C509        C510   1.406       .  A
C509        S515   1.716       .  A
C510        C511   1.408       .  A
C510        H521   1.083       .  S
C511        C520   1.374       .  A
C511        C512   1.388       .  A
C512        C513   1.396       .  A
C512        S518   1.702       .  A
C513        C514   1.398       .  A
C513        H522   1.083       .  S
C514        C517   1.363       .  A
S515        C516   1.725       .  A
C516        C517   1.385       .  A
C517        H523   1.083       .  S
S518        C519   1.717       .  A
C519        C520   1.388       .  A
C520        H524   1.083       .  S
C525        C530   1.388       .  A
C525        C526   1.402       .  A
C525        S531   1.706       .  A
C526        C527   1.402       .  A
C526        H537   1.083       .  S
C527        C536   1.372       .  A
C527        C528   1.388       .  A
C528        C529   1.399       .  A
C528        S534   1.701       .  A
C529        C530   1.399       .  A
C529        H538   1.083       .  S
C530        C533   1.368       .  A
S531        C532   1.720       .  A
C532        C533   1.381       .  A
C533        H539   1.083       .  S
S534        C535   1.723       .  A
C535        C536   1.386       .  A
C536        H540   1.083       .  S
C541        C546   1.387       .  A
C541        C542   1.395       .  A
C541        S547   1.701       .  A
C542        C543   1.397       .  A
C542        H553   1.083       .  S
C543        C552   1.363       .  A
C543        C544   1.387       .  A
C544        C545   1.406       .  A
C544        S550   1.715       .  A
C545        C546   1.408       .  A
C545        H554   1.083       .  S
C546        C549   1.375       .  A
S547        C548   1.720       .  A
C548        C549   1.390       .  A
C549        H555   1.083       .  S
S550        C551   1.724       .  A
C551        C552   1.381       .  A
C552        H556   1.084       .  S
C557        C562   1.388       .  A
C557        C558   1.399       .  A
C557        S563   1.705       .  A
C558        C559   1.400       .  A
C558        H569   1.083       .  S
C559        C568   1.367       .  A
C559        C560   1.386       .  A
C560        C561   1.405       .  A
C560        S566   1.714       .  A
C561        C562   1.406       .  A
C561        H570   1.083       .  S
C562        C565   1.373       .  A
S563        C564   1.721       .  A
C564        C565   1.386       .  A
C565        H571   1.083       .  S
S566        C567   1.724       .  A
C567        C568   1.385       .  A
C568        H572   1.083       .  S
C573        C578   1.388       .  A
C573        C574   1.395       .  A
C573        S579   1.704       .  A
C574        C575   1.399       .  A
C574        H585   1.083       .  S
C575        C584   1.360       .  A
C575        C576   1.387       .  A
C576        C577   1.397       .  A
C576        S582   1.707       .  A
C577        C578   1.400       .  A
C577        H586   1.083       .  S
C578        C581   1.362       .  A
S579        C580   1.718       .  A
C580        C581   1.383       .  A
C581        H587   1.083       .  S
S582        C583   1.721       .  A
C583        C584   1.385       .  A
C584        H588   1.083       .  S
C589        C594   1.388       .  A
C589        C590   1.398       .  A
C589        S595   1.695       .  A
C590        C591   1.397       .  A
C590        H601   1.083       .  S
C591        C600   1.370       .  A
C591        C592   1.388       .  A
C592        C593   1.400       .  A
C592        S598   1.698       .  A
C593        C594   1.399       .  A
C593        H602   1.083       .  S
C594        C597   1.371       .  A
S595        C596   1.724       .  A
C596        C597   1.384       .  A
C597        H603   1.083       .  S
S598        C599   1.723       .  A
C599        C600   1.381       .  A
C600        H604   1.083       .  S
C605        C610   1.387       .  A
C605        C606   1.400       .  A
C605        S611   1.708       .  A
C606        C607   1.402       .  A
C606        H617   1.083       .  S
C607        C616   1.369       .  A
C607        C608   1.387       .  A
C608        C609   1.403       .  A
C608        S614   1.709       .  A
C609        C610   1.404       .  A
C609        H618   1.083       .  S
C610        C613   1.371       .  A
S611        C612   1.722       .  A
C612        C613   1.388       .  A
C613        H619   1.083       .  S
S614        C615   1.722       .  A
C615        C616   1.383       .  A
C616        H620   1.083       .  S
C621        C626   1.387       .  A
C621        C622   1.401       .  A
C621        S627   1.709       .  A
C622        C623   1.402       .  A
C622        H633   1.083       .  S
C623        C632   1.370       .  A
C623        C624   1.387       .  A
C624        C625   1.404       .  A
C624        S630   1.711       .  A
C625        C626   1.405       .  A
C625        H634   1.083       .  S
C626        C629   1.372       .  A
S627        C628   1.723       .  A
C628        C629   1.389       .  A
C629        H635   1.083       .  S
S630        C631   1.724       .  A
C631        C632   1.384       .  A
C632        H636   1.083       .  S
C637        C642   1.388       .  A
C637        C638   1.398       .  A
C637        S643   1.698       .  A
C638        C639   1.398       .  A
C638        H649   1.083       .  S
C639        C648   1.367       .  A
C639        C640   1.388       .  A
C640        C641   1.401       .  A
C640        S646   1.704       .  A
C641        C642   1.401       .  A
C641        H650   1.083       .  S
C642        C645   1.371       .  A
S643        C644   1.723       .  A
C644        C645   1.385       .  A
C645        H651   1.083       .  S
S646        C647   1.721       .  A
C647        C648   1.382       .  A
C648        H652   1.083       .  S
C653        C658   1.388       .  A
C653        C654   1.400       .  A
C653        S659   1.701       .  A
C654        C655   1.400       .  A
C654        H665   1.083       .  S
C655        C664   1.371       .  A
C655        C656   1.387       .  A
C656        C657   1.400       .  A
C656        S662   1.701       .  A
C657        C658   1.400       .  A
C657        H666   1.083       .  S
C658        C661   1.371       .  A
S659        C660   1.723       .  A
C660        C661   1.383       .  A
C661        H667   1.083       .  S
S662        C663   1.725       .  A
C663        C664   1.385       .  A
C664        H668   1.083       .  S
C669        C674   1.387       .  A
C669        C670   1.403       .  A
C669        S675   1.710       .  A
C670        C671   1.404       .  A
C670        H681   1.083   1_545  S
C671        C680   1.371   1_545  A
C671        C672   1.388       .  A
C672        C673   1.398       .  A
C672        S678   1.704       .  A
C673        C674   1.400       .  A
C673        H682   1.083       .  S
C674        C677   1.366       .  A
S675        C676   1.724       .  A
C676        C677   1.386       .  A
C677        H683   1.083       .  S
S678        C679   1.718       .  A
C679        C680   1.385   1_545  A
C680        H684   1.083       .  S
C685        C690   1.387       .  A
C685        C686   1.405       .  A
C685        S691   1.712       .  A
C686        C687   1.406       .  A
C686        H697   1.083       .  S
C687        C696   1.373       .  A
C687        C688   1.387       .  A
C688        C689   1.400       .  A
C688        S694   1.705       .  A
C689        C690   1.401       .  A
C689        H698   1.083       .  S
C690        C693   1.369       .  A
S691        C692   1.723       .  A
C692        C693   1.383       .  A
C693        H699   1.083       .  S
S694        C695   1.723       .  A
C695        C696   1.390       .  A
C696        H700   1.083       .  S
C701        C706   1.387       .  A
C701        C702   1.402       .  A
C701        S707   1.708       .  A
C702        C703   1.403       .  A
C702        H713   1.083       .  S
C703        C712   1.372       .  A
C703        C704   1.387       .  A
C704        C705   1.402       .  A
C704        S710   1.706       .  A
C705        C706   1.402       .  A
C705        H714   1.083       .  S
C706        C709   1.371       .  A
S707        C708   1.721       .  A
C708        C709   1.385       .  A
C709        H715   1.083       .  S
S710        C711   1.725       .  A
C711        C712   1.387       .  A
C712        H716   1.083       .  S
C717        C722   1.388       .  A
C717        C718   1.402       .  A
C717        S723   1.710       .  A
C718        C719   1.404       .  A
C718        H729   1.083       .  S
C719        C728   1.368       .  A
C719        C720   1.387       .  A
C720        C721   1.398       .  A
C720        S726   1.706       .  A
C721        C722   1.400       .  A
C721        H730   1.083       .  S
C722        C725   1.366       .  A
S723        C724   1.721       .  A
C724        C725   1.382       .  A
C725        H731   1.083       .  S
S726        C727   1.719       .  A
C727        C728   1.388       .  A
C728        H732   1.083       .  S
C733        C738   1.387       .  A
C733        C734   1.403       .  A
C733        S739   1.710       .  A
C734        C735   1.404       .  A
C734        H745   1.083       .  S
C735        C744   1.372       .  A
C735        C736   1.387       .  A
C736        C737   1.401       .  A
C736        S742   1.706       .  A
C737        C738   1.402       .  A
C737        H746   1.083       .  S
C738        C741   1.370       .  A
S739        C740   1.722       .  A
C740        C741   1.384       .  A
C741        H747   1.083       .  S
S742        C743   1.724       .  A
C743        C744   1.389       .  A
C744        H748   1.083       .  S
C749        C754   1.387       .  A
C749        C750   1.405       .  A
C749        S755   1.711       .  A
C750        C751   1.406       .  A
C750        H761   1.083       .  S
C751        C760   1.375       .  A
C751        C752   1.387       .  A
C752        C753   1.403       .  A
C752        S758   1.708       .  A
C753        C754   1.403       .  A
C753        H762   1.083       .  S
C754        C757   1.372       .  A
S755        C756   1.723       .  A
C756        C757   1.385       .  A
C757        H763   1.083       .  S
S758        C759   1.724       .  A
C759        C760   1.390       .  A
C760        H764   1.083       .  S
C765        C770   1.388       .  A
C765        C766   1.401       .  A
C765        S771   1.707   1_545  A
C766        C767   1.402       .  A
C766        H777   1.083       .  S
C767        C776   1.371       .  A
C767        C768   1.387       .  A
C768        C769   1.403       .  A
C768        S774   1.708       .  A
C769        C770   1.404       .  A
C769        H778   1.083       .  S
C770        C773   1.372       .  A
S771        C772   1.719   1_565  A
C772        C773   1.385       .  A
C773        H779   1.083       .  S
S774        C775   1.726       .  A
C775        C776   1.386       .  A
C776        H780   1.083       .  S
C781        C786   1.388       .  A
C781        C782   1.396       .  A
C781        S787   1.698       .  A
C782        C783   1.396       .  A
C782        H793   1.083       .  S
C783        C792   1.363       .  A
C783        C784   1.388       .  A
C784        C785   1.402       .  A
C784        S790   1.708       .  A
C785        C786   1.403       .  A
C785        H794   1.083       .  S
C786        C789   1.370       .  A
S787        C788   1.721       .  A
C788        C789   1.386       .  A
C789        H795   1.083       .  S
S790        C791   1.720       .  A
C791        C792   1.379       .  A
C792        H796   1.083       .  S
C797        C802   1.388       .  A
C797        C798   1.401       .  A
C797        S803   1.705       .  A
C798        C799   1.401       .  A
C798        H809   1.083       .  S
C799        C808   1.373       .  A
C799        C800   1.387       .  A
C800        C801   1.404       .  A
C800        S806   1.705       .  A
C801        C802   1.403       .  A
C801        H810   1.083       .  S
C802        C805   1.374       .  A
S803        C804   1.719       .  A
C804        C805   1.386       .  A
C805        H811   1.083       .  S
S806        C807   1.727       .  A
C807        C808   1.386       .  A
C808        H812   1.083       .  S
C813        C818   1.388       .  A
C813        C814   1.404       .  A
C813        S819   1.709       .  A
C814        C815   1.404       .  A
C814        H825   1.083       .  S
C815        C824   1.373       .  A
C815        C816   1.388       .  A
C816        C817   1.395       .  A
C816        S822   1.698       .  A
C817        C818   1.396       .  A
C817        H826   1.083       .  S
C818        C821   1.364       .  A
S819        C820   1.723       .  A
C820        C821   1.379       .  A
C821        H827   1.083       .  S
S822        C823   1.720       .  A
C823        C824   1.387       .  A
C824        H828   1.083       .  S
C829        C834   1.387       .  A
C829        C830   1.404       .  A
C829        S835   1.710       .  A
C830        C831   1.405       .  A
C830        H841   1.083       .  S
C831        C840   1.373       .  A
C831        C832   1.387       .  A
C832        C833   1.398       .  A
C832        S838   1.701       .  A
C833        C834   1.398       .  A
C833        H842   1.083       .  S
C834        C837   1.367       .  A
S835        C836   1.723       .  A
C836        C837   1.382       .  A
C837        H843   1.083       .  S
S838        C839   1.722       .  A
C839        C840   1.389       .  A
C840        H844   1.083       .  S
C845        C850   1.387       .  A
C845        C846   1.400       .  A
C845        S851   1.711       .  A
C846        C847   1.402       .  A
C846        H857   1.083       .  S
C847        C856   1.365       .  A
C847        C848   1.387       .  A
C848        C849   1.398       .  A
C848        S854   1.707       .  A
C849        C850   1.401       .  A
C849        H858   1.083       .  S
C850        C853   1.363       .  A
S851        C852   1.721       .  A
C852        C853   1.385       .  A
C853        H859   1.083       .  S
S854        C855   1.722       .  A
C855        C856   1.386       .  A
C856        H860   1.083       .  S
C861        C866   1.387       .  A
C861        C862   1.399       .  A
C861        S867   1.704       .  A
C862        C863   1.400       .  A
C862        H873   1.083       .  S
C863        C872   1.365       .  A
C863        C864   1.388       .  A
C864        C865   1.401       .  A
C864        S870   1.708   1_545  A
C865        C866   1.402       .  A
C865        H874   1.083       .  S
C866        C869   1.370       .  A
S867        C868   1.723       .  A
C868        C869   1.387       .  A
C869        H875   1.083       .  S
S870        C871   1.720   1_565  A
C871        C872   1.382       .  A
C872        H876   1.083       .  S
C877        C882   1.387       .  A
C877        C878   1.400       .  A
C877        S883   1.709       .  A
C878        C879   1.402       .  A
C878        H889   1.083       .  S
C879        C888   1.368       .  A
C879        C880   1.388       .  A
C880        C881   1.398       .  A
C880        S886   1.704       .  A
C881        C882   1.400       .  A
C881        H890   1.083       .  S
C882        C885   1.364       .  A
S883        C884   1.721       .  A
C884        C885   1.385       .  A
C885        H891   1.083       .  S
S886        C887   1.720       .  A
C887        C888   1.383       .  A
C888        H892   1.083       .  S
C893        C898   1.388       .  A
C893        C894   1.403       .  A
C893        S899   1.709       .  A
C894        C895   1.403       .  A
C894        H905   1.083       .  S
C895        C904   1.373       .  A
C895        C896   1.387       .  A
C896        C897   1.403       .  A
C896        S902   1.707       .  A
C897        C898   1.403       .  A
C897        H906   1.083       .  S
C898        C901   1.372       .  A
S899        C900   1.720       .  A
C900        C901   1.385       .  A
C901        H907   1.083       .  S
S902        C903   1.726       .  A
C903        C904   1.388       .  A
C904        H908   1.083       .  S
C909        C914   1.388       .  A
C909        C910   1.399       .  A
C909        S915   1.701       .  A
C910        C911   1.399       .  A
C910        H921   1.083       .  S
C911        C920   1.370       .  A
C911        C912   1.388       .  A
C912        C913   1.399       .  A
C912        S918   1.698       .  A
C913        C914   1.398       .  A
C913        H922   1.083       .  S
C914        C917   1.368       .  A
S915        C916   1.721       .  A
C916        C917   1.382       .  A
C917        H923   1.083       .  S
S918        C919   1.724       .  A
C919        C920   1.384       .  A
C920        H924   1.083       .  S
C925        C930   1.388       .  A
C925        C926   1.396       .  A
C925        S931   1.702       .  A
C926        C927   1.398       .  A
C926        H937   1.083       .  S
C927        C936   1.363       .  A
C927        C928   1.386       .  A
C928        C929   1.407       .  A
C928        S934   1.718       .  A
C929        C930   1.409       .  A
C929        H938   1.083       .  S
C930        C933   1.375       .  A
S931        C932   1.717       .  A
C932        C933   1.388       .  A
C933        H939   1.083       .  S
S934        C935   1.726       .  A
C935        C936   1.386       .  A
C936        H940   1.084       .  S
C941        C946   1.387       .  A
C941        C942   1.400       .  A
C941        S947   1.711       .  A
C942        C943   1.403       .  A
C942        H953   1.083       .  S
C943        C952   1.366       .  A
C943        C944   1.387       .  A
C944        C945   1.398       .  A
C944        S950   1.709       .  A
C945        C946   1.401       .  A
C945        H954   1.083       .  S
C946        C949   1.364       .  A
S947        C948   1.721       .  A
C948        C949   1.385       .  A
C949        H955   1.083       .  S
S950        C951   1.721       .  A
C951        C952   1.388       .  A
C952        H956   1.083       .  S
C957        C962   1.387       .  A
C957        C958   1.405       .  A
C957        S963   1.710       .  A
C958        C959   1.405       .  A
C958        H969   1.083       .  S
C959        C968   1.374       .  A
C959        C960   1.388       .  A
C960        C961   1.394       .  A
C960        S966   1.696       .  A
C961        C962   1.395       .  A
C961        H970   1.083       .  S
C962        C965   1.364       .  A
S963        C964   1.724       .  A
C964        C965   1.381       .  A
C965        H971   1.084       .  S
S966        C967   1.719       .  A
C967        C968   1.387       .  A
C968        H972   1.083       .  S
C973        C978   1.388       .  A
C973        C974   1.402       .  A
C973        S979   1.703       .  A
C974        C975   1.401       .  A
C974        H985   1.083       .  S
C975        C984   1.374       .  A
C975        C976   1.388       .  A
C976        C977   1.400       .  A
C976        S982   1.698       .  A
C977        C978   1.399       .  A
C977        H986   1.083       .  S
C978        C981   1.371       .  A
S979        C980   1.723       .  A
C980        C981   1.383       .  A
C981        H987   1.083       .  S
S982        C983   1.725       .  A
C983        C984   1.385       .  A
C984        H988   1.083       .  S
C989        C994   1.387       .  A
C989        C990   1.407       .  A
C989        S995   1.712   1_655  A
C990        C991   1.407       .  A
C990       H1001   1.083       .  S
C991       C1000   1.377       .  A
C991        C992   1.387       .  A
C992        C993   1.400       .  A
C992        S998   1.704       .  A
C993        C994   1.400       .  A
C993       H1002   1.083       .  S
C994        C997   1.370       .  A
S995        C996   1.724   1_455  A
C996        C997   1.383       .  A
C997       H1003   1.083       .  S
S998        C999   1.723       .  A
C999       C1000   1.391       .  A
C1000      H1004   1.083       .  S
C1005      C1010   1.388       .  A
C1005      C1006   1.403       .  A
C1005      S1011   1.704       .  A
C1006      C1007   1.402       .  A
C1006      H1017   1.083       .  S
C1007      C1016   1.375       .  A
C1007      C1008   1.388       .  A
C1008      C1009   1.399       .  A
C1008      S1014   1.697       .  A
C1009      C1010   1.398       .  A
C1009      H1018   1.083       .  S
C1010      C1013   1.370       .  A
S1011      C1012   1.723       .  A
C1012      C1013   1.383       .  A
C1013      H1019   1.083       .  S
S1014      C1015   1.725       .  A
C1015      C1016   1.386       .  A
C1016      H1020   1.083       .  S
C1021      C1026   1.388       .  A
C1021      C1022   1.399       .  A
C1021      S1027   1.698       .  A
C1022      C1023   1.398       .  A
C1022      H1033   1.083       .  S
C1023      C1032   1.370       .  A
C1023      C1024   1.388       .  A
C1024      C1025   1.403       .  A
C1024      S1030   1.704       .  A
C1025      C1026   1.402       .  A
C1025      H1034   1.083       .  S
C1026      C1029   1.375       .  A
S1027      C1028   1.724       .  A
C1028      C1029   1.387       .  A
C1029      H1035   1.083       .  S
S1030      C1031   1.724       .  A
C1031      C1032   1.383       .  A
C1032      H1036   1.083       .  S
C1037      C1042   1.388       .  A
C1037      C1038   1.399       .  A
C1037      S1043   1.707       .  A
C1038      C1039   1.401       .  A
C1038      H1049   1.083       .  S
C1039      C1048   1.368       .  A
C1039      C1040   1.387       .  A
C1040      C1041   1.402       .  A
C1040      S1046   1.709       .  A
C1041      C1042   1.404       .  A
C1041      H1050   1.083       .  S
C1042      C1045   1.369       .  A
S1043      C1044   1.718       .  A
C1044      C1045   1.385       .  A
C1045      H1051   1.083       .  S
S1046      C1047   1.726       .  A
C1047      C1048   1.386       .  A
C1048      H1052   1.083       .  S
C1053      C1058   1.387       .  A
C1053      C1054   1.397       .  A
C1053      S1059   1.701       .  A
C1054      C1055   1.398       .  A
C1054      H1065   1.083       .  S
C1055      C1064   1.366       .  A
C1055      C1056   1.387       .  A
C1056      C1057   1.405       .  A
C1056      S1062   1.711       .  A
C1057      C1058   1.406       .  A
C1057      H1066   1.083       .  S
C1058      C1061   1.375       .  A
S1059      C1060   1.721       .  A
C1060      C1061   1.388       .  A
C1061      H1067   1.083       .  S
S1062      C1063   1.724       .  A
C1063      C1064   1.382       .  A
C1064      H1068   1.083       .  S
C1069      C1074   1.387       .  A
C1069      C1070   1.396       .  A
C1069      S1075   1.698       .  A
C1070      C1071   1.396       .  A
C1070      H1081   1.083       .  S
C1071      C1080   1.364       .  A
C1071      C1072   1.386       .  A
C1072      C1073   1.408       .  A
C1072      S1078   1.714       .  A
C1073      C1074   1.408       .  A
C1073      H1082   1.083       .  S
C1074      C1077   1.377       .  A
S1075      C1076   1.719       .  A
C1076      C1077   1.390       .  A
C1077      H1083   1.083       .  S
S1078      C1079   1.725       .  A
C1079      C1080   1.382       .  A
C1080      H1084   1.084       .  S
C1085      C1090   1.387       .  A
C1085      C1086   1.402       .  A
C1085      S1091   1.709       .  A
C1086      C1087   1.403       .  A
C1086      H1097   1.083       .  S
C1087      C1096   1.370       .  A
C1087      C1088   1.387       .  A
C1088      C1089   1.403       .  A
C1088      S1094   1.712       .  A
C1089      C1090   1.405       .  A
C1089      H1098   1.083       .  S
C1090      C1093   1.371       .  A
S1091      C1092   1.724       .  A
C1092      C1093   1.388       .  A
C1093      H1099   1.083       .  S
S1094      C1095   1.723       .  A
C1095      C1096   1.388       .  A
C1096      H1100   1.083       .  S
C1101      C1106   1.387       .  A
C1101      C1102   1.402       .  A
C1101      S1107   1.708       .  A
C1102      C1103   1.403       .  A
C1102      H1113   1.083       .  S
C1103      C1112   1.371       .  A
C1103      C1104   1.388       .  A
C1104      C1105   1.400       .  A
C1104      S1110   1.704       .  A
C1105      C1106   1.401       .  A
C1105      H1114   1.083       .  S
C1106      C1109   1.369       .  A
S1107      C1108   1.723       .  A
C1108      C1109   1.386       .  A
C1109      H1115   1.083       .  S
S1110      C1111   1.719       .  A
C1111      C1112   1.385       .  A
C1112      H1116   1.083       .  S
C1117      C1122   1.387       .  A
C1117      C1118   1.400       .  A
C1117      S1123   1.706       .  A
C1118      C1119   1.401       .  A
C1118      H1129   1.083       .  S
C1119      C1128   1.368       .  A
C1119      C1120   1.387       .  A
C1120      C1121   1.403       .  A
C1120      S1126   1.710       .  A
C1121      C1122   1.404       .  A
C1121      H1130   1.083       .  S
C1122      C1125   1.371       .  A
S1123      C1124   1.721       .  A
C1124      C1125   1.386       .  A
C1125      H1131   1.083       .  S
S1126      C1127   1.722       .  A
C1127      C1128   1.384       .  A
C1128      H1132   1.083       .  S
C1133      C1138   1.387       .  A
C1133      C1134   1.402       .  A
C1133      S1139   1.709       .  A
C1134      C1135   1.404       .  A
C1134      H1145   1.083       .  S
C1135      C1144   1.370       .  A
C1135      C1136   1.388       .  A
C1136      C1137   1.400       .  A
C1136      S1142   1.708       .  A
C1137      C1138   1.402       .  A
C1137      H1146   1.083       .  S
C1138      C1141   1.369       .  A
S1139      C1140   1.725       .  A
C1140      C1141   1.387       .  A
C1141      H1147   1.083       .  S
S1142      C1143   1.720       .  A
C1143      C1144   1.385       .  A
C1144      H1148   1.083       .  S
C1149      C1154   1.388       .  A
C1149      C1150   1.398       .  A
C1149      S1155   1.701       .  A
C1150      C1151   1.398       .  A
C1150      H1161   1.083       .  S
C1151      C1160   1.368       .  A
C1151      C1152   1.387       .  A
C1152      C1153   1.401       .  A
C1152      S1158   1.703       .  A
C1153      C1154   1.401       .  A
C1153      H1162   1.083       .  S
C1154      C1157   1.370       .  A
S1155      C1156   1.720       .  A
C1156      C1157   1.385       .  A
C1157      H1163   1.083       .  S
S1158      C1159   1.725       .  A
C1159      C1160   1.384       .  A
C1160      H1164   1.083       .  S
C1165      C1170   1.387       .  A
C1165      C1166   1.400       .  A
C1165      S1171   1.702       .  A
C1166      C1167   1.400       .  A
C1166      H1177   1.083       .  S
C1167      C1176   1.371       .  A
C1167      C1168   1.388       .  A
C1168      C1169   1.400       .  A
C1168      S1174   1.702       .  A
C1169      C1170   1.400       .  A
C1169      H1178   1.083       .  S
C1170      C1173   1.370       .  A
S1171      C1172   1.724       .  A
C1172      C1173   1.385       .  A
C1173      H1179   1.083       .  S
S1174      C1175   1.723       .  A
C1175      C1176   1.384       .  A
C1176      H1180   1.083       .  S
