geometry optimzed in LAMMPS
_audit_creation_date              2020-12-01 
_audit_creation_method            'lammps2cif' 
_symmetry_space_group_name_H-M    'P1' 
_symmetry_Int_Tables_number       1 
_symmetry_cell_setting            triclinic 
loop_ 
_symmetry_equiv_pos_as_xyz 
  x,y,z 
_cell_length_a                    28.93483634 
_cell_length_b                    29.063145617863203 
_cell_length_c                    28.78555459272546 
_cell_angle_alpha                 90.2437781422245 
_cell_angle_beta                  90.16360350159972 
_cell_angle_gamma                 89.81472628532305 
loop_ 
_atom_site_label 
_atom_site_type_symbol 
_atom_site_fract_x 
_atom_site_fract_y 
_atom_site_fract_z 
_atom_site_charge 
C1          C  0.28335323  0.27717548  0.26848076     0.30700
C2          C  0.22695498  0.21951758  0.21732348     0.30700
C3          C  0.29941528  0.26684028  0.21808226    -0.05500
C4          C  0.27700806  0.22828090  0.28759542    -0.06300
C5          C  0.23321913  0.29282631  0.26127536    -0.06100
C6          C  0.26998100  0.23763779  0.19207682    -0.05500
C7          C  0.24865836  0.19896455  0.26153175    -0.06300
C8          C  0.20505258  0.26366823  0.23541640    -0.06100
C9          C  0.29658581  0.21672314  0.15864141    -0.31500
N10         N  0.34042060  0.23252400  0.16181127     0.15000
C11         C  0.34302019  0.26097683  0.19902716    -0.31500
H12         H  0.37533035  0.27317697  0.21337407     0.16900
C13         C  0.24949312  0.15690489  0.28305157    -0.30500
N14         N  0.27603928  0.16011633  0.32174582     0.13700
C15         C  0.29344581  0.20345337  0.32472856    -0.30500
C16         C  0.16267403  0.28426361  0.23130251    -0.30800
N17         N  0.16404715  0.32486007  0.25439568     0.14200
H18         H  0.13305376  0.27101645  0.21253322     0.16800
C19         C  0.20702447  0.33071005  0.27273475    -0.30800
H20         H  0.21886032  0.36067896  0.29167834     0.16800
H21         H  0.31660568  0.21602126  0.35140328     0.16800
H22         H  0.28522091  0.18884857  0.13651990     0.16900
H23         H  0.23241764  0.12581135  0.27154500     0.16800
N24         N  0.06815434  0.50669677  0.28685212    -0.35900
N25         N  0.00387467  0.43386816  0.26533266    -0.56500
N26         N  0.93197385  0.50119288  0.24691248    -0.35900
N27         N  0.99754787  0.57396743  0.26303906    -0.56500
C28         C  0.09738914  0.47070073  0.28186554     0.27700
C29         C  0.09362072  0.54517976  0.28214063     0.27700
C30         C  0.91303714  0.46239825  0.22939427     0.27700
C31         C  0.91014761  0.53709828  0.22656538     0.27700
C32         C  0.03902897  0.40877645  0.28295479     0.36300
C33         C  0.96703583  0.40563059  0.26366198     0.36300
C34         C  0.02957449  0.60182354  0.28229378     0.36300
C35         C  0.95837276  0.59908109  0.25984219     0.36300
C36         C  0.14193235  0.48646977  0.27435761    -0.21200
C37         C  0.13955990  0.53359618  0.27456362    -0.21200
C38         C  0.87879876  0.47361231  0.19759057    -0.21200
C39         C  0.87718259  0.52085679  0.19554447    -0.21200
C40         C  0.02443600  0.36452412  0.29283365    -0.22200
C41         C  0.97867945  0.36249692  0.28053832    -0.22200
C42         C  0.01062904  0.64465278  0.29188641    -0.22200
C43         C  0.96538572  0.64295576  0.27754047    -0.22200
C44         C  0.08510805  0.42408282  0.28535269    -0.17600
C45         C  0.07675483  0.59041351  0.28635328    -0.17600
C46         C  0.91781881  0.58392764  0.23745276    -0.17600
C47         C  0.92434994  0.41727765  0.24338827    -0.17600
H48         H  0.17294463  0.46619674  0.26912481     0.15300
H49         H  0.16839646  0.55666231  0.26951174     0.15300
H50         H  0.85732634  0.45017484  0.17781560     0.15300
H51         H  0.85421007  0.54085890  0.17377657     0.15300
H52         H  0.04486789  0.33638977  0.30651082     0.13600
H53         H  0.95682458  0.33244529  0.28284590     0.13600
H54         H  0.02789431  0.67429195  0.30667877     0.13600
H55         H  0.94072782  0.67098851  0.27930871     0.13600
H56         H  0.03380783  0.50527572  0.29738550     0.26900
H57         H  0.95466423  0.50292729  0.27500468     0.26900
C58         C  0.77210765  0.77236768  0.20658531     0.30700
C59         C  0.71442268  0.72596362  0.26638049     0.30700
C60         C  0.77411364  0.71931541  0.20288332    -0.05500
C61         C  0.78170537  0.77930912  0.25852956    -0.06300
C62         C  0.72021834  0.78216044  0.20241458    -0.06100
C63         C  0.74368053  0.69571678  0.23330616    -0.05500
C64         C  0.75128044  0.75723912  0.28924197    -0.06300
C65         C  0.69081140  0.75926927  0.23263664    -0.06100
C66         C  0.76408448  0.65413519  0.24356534    -0.31500
N67         N  0.80552351  0.65131572  0.22249286     0.15000
C68         C  0.81248941  0.69096272  0.19885684    -0.31500
H69         H  0.84534822  0.70126772  0.18478108     0.16900
C70         C  0.74923817  0.78576955  0.32769779    -0.30500
N71         N  0.78055306  0.82009801  0.32314380     0.13700
C72         C  0.80095265  0.81590798  0.28151435    -0.30500
C73         C  0.64624535  0.76861481  0.21818265    -0.30800
N74         N  0.64841697  0.79520429  0.17961239     0.14200
H75         H  0.61476385  0.75436496  0.23221451     0.16800
C76         C  0.69333033  0.80374118  0.16983936    -0.30800
H77         H  0.70559913  0.82221314  0.13973940     0.16800
H78         H  0.82366509  0.84152114  0.26693629     0.16800
H79         H  0.75260807  0.63060379  0.27019893     0.16900
H80         H  0.72268037  0.78479426  0.35397507     0.16800
N81         N  0.30716712  0.00625609  0.43825120    -0.35900
N82         N  0.28036563  0.07067292  0.50973662    -0.56500
N83         N  0.26261245  0.99368172  0.57237877    -0.35900
N84         N  0.29785767  0.92997604  0.50259620    -0.56500
C85         C  0.31786994  0.04615855  0.41700523     0.27700
C86         C  0.32607403  0.97192897  0.41292309     0.27700
C87         C  0.25998623  0.02951672  0.60230427     0.27700
C88         C  0.26810753  0.95524642  0.59809842     0.27700
C89         C  0.28027537  0.09956317  0.47308538     0.36300
C90         C  0.25769940  0.09270843  0.54420010     0.36300
C91         C  0.30430882  0.90585353  0.46296617     0.36300
C92         C  0.28242670  0.89945272  0.53411017     0.36300
C93         C  0.34431747  0.03699018  0.37786991    -0.21200
C94         C  0.34913767  0.98999987  0.37509216    -0.21200
C95         C  0.26312382  0.01357423  0.64758680    -0.21200
C96         C  0.26813639  0.96659767  0.64490879    -0.21200
C97         C  0.25779961  0.14025458  0.48442531    -0.22200
C98         C  0.24330097  0.13582606  0.52942239    -0.22200
C99         C  0.29397599  0.85975982  0.46974778    -0.22200
C100        C  0.28032740  0.85569277  0.51492996    -0.22200
C101        C  0.30081691  0.09005317  0.42972724    -0.17600
C102        C  0.31912736  0.92464814  0.42052730    -0.17600
C103        C  0.27137859  0.91004199  0.58042704    -0.17600
C104        C  0.25311714  0.07594499  0.58994717    -0.17600
H105        H  0.35772546  0.06148429  0.35315569     0.15300
H106        H  0.36683065  0.97117277  0.34788411     0.15300
H107        H  0.26195901  0.03366103  0.67931504     0.15300
H108        H  0.27165966  0.94346937  0.67409033     0.15300
H109        H  0.25209389  0.16994378  0.46255104     0.13600
H110        H  0.22441692  0.16154139  0.54903031     0.13600
H111        H  0.29558866  0.83189886  0.44473563     0.13600
H112        H  0.26946080  0.82419490  0.53154758     0.13600
H113        H  0.28283207  0.00211429  0.46424177     0.26900
H114        H  0.25622041  0.99484181  0.53689058     0.26900
N115        N  0.76503554  0.99315174  0.41601040    -0.35900
N116        N  0.77321729  0.93539778  0.49697347    -0.56500
N117        N  0.76187593  0.01240182  0.55667712    -0.35900
N118        N  0.74882018  0.07049973  0.47622770    -0.56500
C119        C  0.75464711  0.95170009  0.39758645     0.27700
C120        C  0.75034436  0.02535013  0.38576664     0.27700
C121        C  0.75772664  0.97732834  0.58680931     0.27700
C122        C  0.73853724  0.04844666  0.57466014     0.27700
C123        C  0.78319232  0.90507918  0.46309862     0.36300
C124        C  0.79037454  0.91740033  0.53641079     0.36300
C125        C  0.76225274  0.09179950  0.43712297     0.36300
C126        C  0.75339304  0.10167362  0.51060568     0.36300
C127        C  0.73336310  0.95763678  0.35470677    -0.21200
C128        C  0.73113008  0.00437601  0.34699330    -0.21200
C129        C  0.73138576  0.99094720  0.62458621    -0.21200
C130        C  0.71878840  0.03600924  0.61665231    -0.21200
C131        C  0.80724300  0.86771828  0.48066711    -0.22200
C132        C  0.81268946  0.87600323  0.52725903    -0.22200
C133        C  0.77657670  0.13632477  0.44690932    -0.22200
C134        C  0.77023527  0.14283572  0.49365523    -0.22200
C135        C  0.76697310  0.90910217  0.41754634    -0.17600
C136        C  0.75545586  0.07296270  0.39255844    -0.17600
C137        C  0.74057686  0.09338234  0.55662242    -0.17600
C138        C  0.77830036  0.93395940  0.58072248    -0.17600
H139        H  0.72116704  0.93116439  0.33118184     0.15300
H140        H  0.71658546  0.02097113  0.31667681     0.15300
H141        H  0.72223320  0.97059893  0.65457188     0.15300
H142        H  0.69863847  0.05757028  0.63976061     0.15300
H143        H  0.81899741  0.83750192  0.46196285     0.13600
H144        H  0.82892370  0.85299338  0.55190253     0.13600
H145        H  0.78915865  0.16180295  0.42277514     0.13600
H146        H  0.77741734  0.17406161  0.51294960     0.13600
H147        H  0.78523942  0.99936977  0.44534940     0.26900
H148        H  0.78435040  0.01336191  0.52846740     0.26900
C149        C  0.20538399  0.77795580  0.77563933     0.30700
C150        C  0.26139299  0.72265672  0.72242185     0.30700
C151        C  0.19911655  0.72585642  0.78175311    -0.05500
C152        C  0.19895475  0.78325524  0.72275673    -0.06300
C153        C  0.25736156  0.78410531  0.78221485    -0.06100
C154        C  0.22815684  0.69756001  0.75484897    -0.05500
C155        C  0.22918441  0.75591685  0.69545067    -0.06300
C156        C  0.28619739  0.75599794  0.75557274    -0.06100
C157        C  0.20605696  0.65594622  0.74913357    -0.31500
N158        N  0.16508129  0.65788406  0.77130454     0.15000
C159        C  0.15950902  0.70085985  0.78854276    -0.31500
H160        H  0.12680784  0.71486753  0.79994362     0.16900
C161        C  0.24010259  0.78274451  0.65757682    -0.30500
N162        N  0.21579981  0.82252281  0.65906144     0.13700
C163        C  0.18981432  0.82263673  0.69770605    -0.30500
C164        C  0.32909606  0.75751550  0.77638353    -0.30800
N165        N  0.32669417  0.78577491  0.81382436     0.14200
H166        H  0.35919658  0.73731650  0.76729955     0.16800
C167        C  0.28314052  0.80207561  0.81788074    -0.30800
H168        H  0.27006757  0.82120120  0.84743594     0.16800
H169        H  0.17043766  0.85228075  0.70946058     0.16800
H170        H  0.21702642  0.62790560  0.72682659     0.16900
H171        H  0.26809582  0.77595993  0.63369739     0.16800
N172        N  0.04689335  0.50481033  0.80531128    -0.35900
N173        N  0.97620518  0.43589659  0.81697648    -0.56500
N174        N  0.90657116  0.50757825  0.81987897    -0.35900
N175        N  0.97766727  0.57646895  0.81448642    -0.56500
C176        C  0.07275026  0.46748083  0.81553672     0.27700
C177        C  0.07364369  0.54199801  0.81291271     0.27700
C178        C  0.88180781  0.47068186  0.83304096     0.27700
C179        C  0.88292799  0.54523850  0.83381924     0.27700
C180        C  0.01212947  0.40864474  0.80512025     0.36300
C181        C  0.93792089  0.41025499  0.81077207     0.36300
C182        C  0.01395399  0.60183166  0.80048051     0.36300
C183        C  0.93997542  0.60347919  0.80952258     0.36300
C184        C  0.11643751  0.48103972  0.82993142    -0.21200
C185        C  0.11703046  0.52826048  0.82821117    -0.21200
C186        C  0.84199402  0.48481527  0.85564503    -0.21200
C187        C  0.84288666  0.53209918  0.85651102    -0.21200
C188        C  0.99673591  0.36548947  0.79164085    -0.22200
C189        C  0.94953795  0.36654039  0.79511871    -0.22200
C190        C  0.99940524  0.64514652  0.78662235    -0.22200
C191        C  0.95239314  0.64618832  0.79227807    -0.22200
C192        C  0.05871851  0.42161238  0.80867684    -0.17600
C193        C  0.06032776  0.58769625  0.80387780    -0.17600
C194        C  0.89500652  0.59083769  0.82301298    -0.17600
C195        C  0.89297618  0.42485816  0.82212458    -0.17600
H196        H  0.14504023  0.45920090  0.84016602     0.15300
H197        H  0.14615518  0.54991468  0.83700700     0.15300
H198        H  0.81501274  0.46329491  0.86969640     0.15300
H199        H  0.81664558  0.55423809  0.87141811     0.15300
H200        H  0.01732018  0.33631008  0.78053413     0.13600
H201        H  0.92647394  0.33825195  0.78739504     0.13600
H202        H  0.02051636  0.67318297  0.77419179     0.13600
H203        H  0.93005347  0.67517914  0.78478384     0.13600
H204        H  0.01490106  0.50475622  0.78871356     0.26900
H205        H  0.93463721  0.50700790  0.79737161     0.26900
C206        C  0.71197299  0.27716719  0.71526105     0.30700
C207        C  0.77006182  0.22590134  0.77108256     0.30700
C208        C  0.74491110  0.30398701  0.74717295    -0.05500
C209        C  0.68830833  0.24411373  0.74966842    -0.06300
C210        C  0.74491895  0.24364601  0.68959657    -0.06100
C211        C  0.77375460  0.27783267  0.77537873    -0.05500
C212        C  0.71808218  0.21799476  0.77762386    -0.06300
C213        C  0.77505903  0.21780844  0.71856872    -0.06100
C214        C  0.80375449  0.30700551  0.79704983    -0.31500
N215        N  0.79419660  0.35058399  0.78297593     0.15000
C216        C  0.75845017  0.34910105  0.75230166    -0.31500
H217        H  0.74520225  0.37829264  0.73313157     0.16900
C218        C  0.69136222  0.19114758  0.80564967    -0.30500
N219        N  0.64621053  0.20040159  0.79638493     0.13700
C220        C  0.64396384  0.23250393  0.76222350    -0.30500
C221        C  0.78165592  0.17609832  0.69692560    -0.30800
N222        N  0.75869102  0.17533029  0.65650768     0.14200
H223        H  0.79678897  0.14565852  0.71234929     0.16800
C224        C  0.73481011  0.21513892  0.65226142    -0.30800
H225        H  0.70750612  0.22081124  0.62721371     0.16800
H226        H  0.61232053  0.24721919  0.74863803     0.16800
H227        H  0.83248454  0.29635089  0.81856414     0.16900
H228        H  0.70417147  0.16811809  0.83209258     0.16800
N229        N  0.56050597  0.82139066  0.98769227    -0.35900
N230        N  0.49099143  0.83313663  0.91614099    -0.56500
N231        N  0.42240154  0.82842511  0.98872344    -0.35900
N232        N  0.49187430  0.82134922  0.06180146    -0.56500
C233        C  0.58611423  0.83395843  0.95073888     0.27700
C234        C  0.58660438  0.82835032  0.02608596     0.27700
C235        C  0.39612562  0.84173563  0.95226118     0.27700
C236        C  0.39673932  0.83386896  0.02746916     0.27700
C237        C  0.52751786  0.82056413  0.88986873     0.36300
C238        C  0.45297681  0.82517701  0.89011750     0.36300
C239        C  0.52903657  0.80188908  0.08240143     0.36300
C240        C  0.45438575  0.80328573  0.08266146     0.36300
C241        C  0.62872501  0.84996957  0.96577868    -0.21200
C242        C  0.62898955  0.84659255  0.01345829    -0.21200
C243        C  0.35343124  0.85681723  0.96810723    -0.21200
C244        C  0.35393305  0.85217593  0.01566199    -0.21200
C245        C  0.51258133  0.80447987  0.84702869    -0.22200
C246        C  0.46565610  0.80923285  0.84645112    -0.22200
C247        C  0.51523429  0.77100405  0.11607549    -0.22200
C248        C  0.46784688  0.77178407  0.11617632    -0.22200
C249        C  0.57394019  0.82570468  0.90398679    -0.17600
C250        C  0.57505250  0.81253637  0.07085563    -0.17600
C251        C  0.40843795  0.81543812  0.07129044    -0.17600
C252        C  0.40727667  0.83322693  0.90532925    -0.17600
H253        H  0.65715616  0.86155327  0.94449398     0.15300
H254        H  0.65774560  0.85504362  0.03601966     0.15300
H255        H  0.32412876  0.86786368  0.94749879     0.15300
H256        H  0.32512847  0.85916036  0.03857093     0.15300
H257        H  0.53272547  0.79019270  0.81888098     0.13600
H258        H  0.44401919  0.80107956  0.81694224     0.13600
H259        H  0.53684992  0.74888581  0.13714071     0.13600
H260        H  0.44607490  0.75016128  0.13729831     0.13600
H261        H  0.53013661  0.80235704  0.98624632     0.26900
H262        H  0.45265894  0.80919970  0.98661359     0.26900
N263        N  0.49348837  0.15690361  0.90794007    -0.35900
N264        N  0.56517862  0.15982591  0.97811557    -0.56500
N265        N  0.49439809  0.18090771  0.04732866    -0.35900
N266        N  0.42299561  0.17144929  0.97774025    -0.56500
C267        C  0.53004409  0.14271377  0.88267156     0.27700
C268        C  0.45523535  0.14824507  0.88255796     0.27700
C269        C  0.53142660  0.17103987  0.07410932     0.27700
C270        C  0.45651352  0.17585116  0.07416349     0.27700
C271        C  0.59147824  0.16276919  0.93952371     0.36300
C272        C  0.59189269  0.17465832  0.01366409     0.36300
C273        C  0.39753195  0.17792036  0.93899580     0.36300
C274        C  0.39792074  0.18895312  0.01313473     0.36300
C275        C  0.51489240  0.12413213  0.84088667    -0.21200
C276        C  0.46744019  0.12771664  0.84078513    -0.21200
C277        C  0.51708111  0.15926709  0.11836995    -0.21200
C278        C  0.46962003  0.16203295  0.11833844    -0.21200
C279        C  0.63528674  0.17861516  0.95079417    -0.22200
C280        C  0.63553029  0.18619235  0.99779261    -0.22200
C281        C  0.35597709  0.19932186  0.94985939    -0.22200
C282        C  0.35624152  0.20632164  0.99692769    -0.22200
C283        C  0.57651827  0.15152333  0.89417463    -0.17600
C284        C  0.41047903  0.16330386  0.89415148    -0.17600
C285        C  0.41095008  0.18644804  0.06018293    -0.17600
C286        C  0.57776902  0.17656857  0.06044162    -0.17600
H287        H  0.53594293  0.11098397  0.81275225     0.15300
H288        H  0.44466241  0.11789021  0.81257373     0.15300
H289        H  0.53863359  0.15009834  0.14771759     0.15300
H290        H  0.44742887  0.15514536  0.14767070     0.15300
H291        H  0.66389948  0.18489555  0.92754651     0.13600
H292        H  0.66439070  0.19932984  0.01776978     0.13600
H293        H  0.32831194  0.20889337  0.92638315     0.13600
H294        H  0.32887659  0.22235093  0.01687248     0.13600
H295        H  0.49503131  0.17781650  0.93721401     0.26900
H296        H  0.49546339  0.19604749  0.01464954     0.26900
C297        C  0.71340022  0.73478210  0.71931790     0.30700
C298        C  0.77206104  0.78871923  0.77204987     0.30700
C299        C  0.74391929  0.70959705  0.75460233    -0.05500
C300        C  0.74887252  0.76341479  0.69223346    -0.06300
C301        C  0.69015558  0.77250219  0.74946808    -0.06100
C302        C  0.77279858  0.73685853  0.78195365    -0.05500
C303        C  0.77917066  0.79086898  0.71933237    -0.06300
C304        C  0.72029101  0.79915001  0.77665908    -0.06100
C305        C  0.79924282  0.70760742  0.80821734    -0.31500
N306        N  0.79019246  0.66366817  0.79489854     0.15000
C307        C  0.75583438  0.66449097  0.76272657    -0.31500
H308        H  0.74329186  0.63478789  0.74375322     0.16900
C309        C  0.78841510  0.82954841  0.69354443    -0.30500
N310        N  0.76541748  0.82682006  0.65275173     0.13700
C311        C  0.74105477  0.78750932  0.65194134    -0.30500
C312        C  0.69389510  0.82495477  0.80638125    -0.30800
N313        N  0.64897427  0.81694840  0.79668411     0.14200
H314        H  0.70595333  0.84538277  0.83546977     0.16800
C315        C  0.64590268  0.78528929  0.76201613    -0.30800
H316        H  0.61390585  0.77038808  0.74972531     0.16800
H317        H  0.71444531  0.78002920  0.62650919     0.16800
H318        H  0.82475494  0.71772819  0.83355947     0.16900
H319        H  0.80569291  0.85992510  0.70653581     0.16800
C320        C  0.76130109  0.23509475  0.20757294     0.30700
C321        C  0.70100900  0.28778167  0.25981767     0.30700
C322        C  0.77977577  0.28150045  0.22499339    -0.05500
C323        C  0.71611190  0.24921386  0.18349257    -0.06300
C324        C  0.74394634  0.21384487  0.25319567    -0.06100
C325        C  0.74905361  0.30809090  0.25104438    -0.05500
C326        C  0.68453204  0.27562110  0.21005378    -0.06300
C327        C  0.71270527  0.24008574  0.27898324    -0.06100
C328        C  0.77153204  0.34776597  0.26353105    -0.31500
N329        N  0.81497976  0.34599880  0.24625336     0.15000
C330        C  0.82062464  0.30544422  0.22313877    -0.31500
H331        H  0.85205658  0.29388567  0.20662918     0.16900
C332        C  0.64131433  0.26482475  0.19237261    -0.30500
N333        N  0.64599158  0.23626036  0.15542556     0.13700
C334        C  0.69130713  0.22595462  0.15036216    -0.30500
C335        C  0.70224745  0.21566290  0.31826396    -0.30800
N336        N  0.72708534  0.17611950  0.31762560     0.14200
H337        H  0.67929554  0.22626319  0.34596787     0.16800
C338        C  0.75368133  0.17536490  0.27893684    -0.30800
H339        H  0.77986152  0.14994303  0.27127758     0.16800
H340        H  0.70546405  0.20058214  0.12678879     0.16800
H341        H  0.75742793  0.37593828  0.28379042     0.16900
H342        H  0.60831741  0.27348932  0.20766954     0.16800
C343        C  0.21428696  0.23465145  0.77658473     0.30700
C344        C  0.26842513  0.29348986  0.72560960     0.30700
C345        C  0.22373116  0.21994206  0.72587059    -0.05500
C346        C  0.19645567  0.28371670  0.77093423    -0.06300
C347        C  0.26333739  0.24258265  0.79514787    -0.06100
C348        C  0.25125534  0.25035525  0.70006186    -0.05500
C349        C  0.22357675  0.31349807  0.74505715    -0.06300
C350        C  0.29147861  0.27239500  0.76912687    -0.06100
C351        C  0.27026340  0.22571898  0.66409110    -0.31500
N352        N  0.25482485  0.18208429  0.66618578     0.15000
C353        C  0.22840718  0.17748372  0.70464751    -0.31500
H354        H  0.21732718  0.14481524  0.71845444     0.16900
C355        C  0.20106267  0.35510780  0.74387678    -0.30500
N356        N  0.16139710  0.35122065  0.76853392     0.13700
C357        C  0.15815288  0.30758433  0.78497414    -0.30500
C358        C  0.33646533  0.25864888  0.77769532    -0.30800
N359        N  0.33645465  0.22386071  0.80867534     0.14200
H360        H  0.36714273  0.27059478  0.76014580     0.16800
C361        C  0.29209063  0.21309744  0.81854171    -0.30800
H362        H  0.28085223  0.18424102  0.83912884     0.16800
H363        H  0.12992993  0.29366162  0.80495724     0.16800
H364        H  0.29609843  0.23778774  0.63993440     0.16900
H365        H  0.21258380  0.38596585  0.72651289     0.16800
C366        C  0.27207819  0.73791968  0.27495446     0.30700
C367        C  0.21704784  0.79558227  0.22284154     0.30700
C368        C  0.22250407  0.72196302  0.26558562    -0.05500
C369        C  0.26430911  0.78626920  0.29487264    -0.06300
C370        C  0.29018046  0.74936929  0.22579287    -0.06100
C371        C  0.19502843  0.75115501  0.23913109    -0.05500
C372        C  0.23652704  0.81596675  0.26838927    -0.06300
C373        C  0.26108816  0.77816792  0.19882450    -0.06100
C374        C  0.15237589  0.73141530  0.23466203    -0.31500
N375        N  0.15291529  0.69124366  0.25814884     0.15000
C376        C  0.19564761  0.68486365  0.27704053    -0.31500
H377        H  0.20678553  0.65522320  0.29677037     0.16900
C378        C  0.24613921  0.85987324  0.28368182    -0.30500
N379        N  0.27678901  0.85742509  0.31916848     0.13700
C380        C  0.28884574  0.81276412  0.32562899    -0.30500
C381        C  0.28875995  0.80118337  0.16808586    -0.30800
N382        N  0.33298703  0.78823956  0.17503703     0.14200
H383        H  0.27810956  0.82898121  0.14548760     0.16800
C384        C  0.33473331  0.75889878  0.21119691    -0.30800
H385        H  0.36650247  0.74797292  0.22777699     0.16800
H386        H  0.31463623  0.80022016  0.34971034     0.16800
H387        H  0.12300739  0.74517624  0.21584496     0.16900
H388        H  0.23376910  0.89174544  0.26880517     0.16800
N389        N  0.04195504  0.92208693  0.05481306    -0.05400
N390        N  0.07309411  0.89048042  0.06582802    -0.57500
N391        N  0.93275148  0.95258632  0.08004298    -0.05100
N392        N  0.90053549  0.94013492  0.11024052    -0.59700
N393        N  0.93628934  0.92113029  0.04706123    -0.04700
N394        N  0.90695343  0.88713926  0.05431155    -0.57500
N395        N  0.03903336  0.95334486  0.08797398    -0.04400
N396        N  0.06809131  0.94344723  0.12209260    -0.60000
C397        C  0.08941419  0.90429001  0.10779870     0.96800
C398        C  0.88435411  0.89929829  0.09355737     0.96500
N399        N  0.93793090  0.09774290  0.04981165    -0.05600
N400        N  0.90800229  0.13132370  0.05768640    -0.58100
N401        N  0.04036317  0.06372886  0.08919359    -0.03700
N402        N  0.07034915  0.07281858  0.12293943    -0.59400
N403        N  0.04378793  0.09485425  0.05618295    -0.05600
N404        N  0.07611828  0.12524464  0.06672504    -0.58400
N405        N  0.93377914  0.06521960  0.08127970    -0.03400
N406        N  0.90062550  0.07625228  0.11101381    -0.59400
Mn407      Mn  0.98603312  0.00877214  0.08579874     1.18400
C408        C  0.88454034  0.11746633  0.09567295     0.98800
C409        C  0.09272128  0.11116746  0.10834833     0.99500
N410        N  0.94376399  0.92244709  0.93628345    -0.05600
N411        N  0.91499524  0.88946199  0.92342622    -0.62000
N412        N  0.05057115  0.95508145  0.91147158    -0.04400
N413        N  0.08239656  0.94415682  0.88033255    -0.62600
N414        N  0.04869491  0.92321734  0.94382680    -0.05200
N415        N  0.07880475  0.89011972  0.93507630    -0.62200
N416        N  0.94449982  0.95532526  0.90488883    -0.04000
N417        N  0.91567594  0.94548198  0.87045390    -0.62900
Mn418      Mn  0.99277925  0.92165508  0.99554259     1.10700
C419        C  0.89717263  0.90453208  0.88270594     1.00100
C420        C  0.10004039  0.90364885  0.89565449     1.00100
N421        N  0.04980597  0.09677314  0.94471685    -0.05200
N422        N  0.08012280  0.12955999  0.93545789    -0.60500
N423        N  0.94461453  0.06633562  0.90683974    -0.04500
N424        N  0.91442289  0.07662880  0.87383439    -0.57300
N425        N  0.94314634  0.09761004  0.94007653    -0.05800
N426        N  0.91140411  0.12914021  0.93069400    -0.60100
N427        N  0.05047073  0.06525306  0.91171628    -0.04800
N428        N  0.08093441  0.07621618  0.87948494    -0.57300
Mn429      Mn  0.99393645  0.09746359  0.99777605     1.20200
Mn430      Mn  0.99749966  0.01052433  0.90782280     1.10100
Cl431      Cl  0.99250820  0.00958960  0.99678407    -0.85300
C432        C  0.09967023  0.11619257  0.89475917     0.97100
C433        C  0.89340834  0.11553198  0.88943022     0.96900
N434        N  0.57819111  0.45698901  0.43791692    -0.05400
N435        N  0.60962819  0.42583726  0.42583285    -0.57500
N436        N  0.54561057  0.56408366  0.40892807    -0.05100
N437        N  0.55568524  0.59390808  0.37581758    -0.59700
N438        N  0.57851646  0.56350326  0.44074328    -0.04700
N439        N  0.61127337  0.59337891  0.42965124    -0.57500
N440        N  0.54527177  0.45870540  0.40621104    -0.04400
N441        N  0.55367423  0.42902816  0.37236225    -0.60000
C442        C  0.59372219  0.40835628  0.38490399     0.96800
C443        C  0.59655880  0.61248729  0.38912567     0.96500
N444        N  0.40191648  0.56284139  0.44221830    -0.05600
N445        N  0.36914082  0.59342360  0.43248870    -0.58100
N446        N  0.43548981  0.45818550  0.40665488    -0.03700
N447        N  0.42671512  0.42811084  0.37320762    -0.59400
N448        N  0.40348701  0.45619646  0.43902870    -0.05600
N449        N  0.37243513  0.42443283  0.42805132    -0.58400
N450        N  0.43422225  0.56377076  0.41004627    -0.03400
N451        N  0.42377429  0.59453001  0.37792201    -0.59400
Mn452      Mn  0.49012695  0.51140196  0.40756355     1.18400
C453        C  0.38331352  0.61327593  0.39232667     0.98800
C454        C  0.38748106  0.40689585  0.38692668     0.99500
N455        N  0.57919000  0.56064583  0.55370993    -0.05600
N456        N  0.61155364  0.59101449  0.56463174    -0.62000
N457        N  0.54775325  0.45407195  0.58363846    -0.04400
N458        N  0.55792805  0.42322196  0.61588077    -0.62600
N459        N  0.57974936  0.45417863  0.55107351    -0.05200
N460        N  0.61204681  0.42307986  0.56081509    -0.62200
N461        N  0.54714074  0.55997607  0.58623988    -0.04000
N462        N  0.55746744  0.58975063  0.61972863    -0.62900
Mn463      Mn  0.57991082  0.50878507  0.49589730     1.10700
C464        C  0.59763200  0.60930286  0.60579193     1.00100
C465        C  0.59795685  0.40366445  0.60128584     1.00100
N466        N  0.40382777  0.45404811  0.55156681    -0.05200
N467        N  0.37006174  0.42569137  0.56323506    -0.60500
N468        N  0.43457271  0.55830430  0.58705877    -0.04500
N469        N  0.42188068  0.58502484  0.62224043    -0.57300
N470        N  0.40257062  0.55882167  0.55429873    -0.05800
N471        N  0.36809051  0.58621544  0.56648411    -0.60100
N472        N  0.43629549  0.45389233  0.58386170    -0.04800
N473        N  0.42496533  0.42557175  0.61779810    -0.57300
Mn474      Mn  0.40224897  0.50792545  0.49663294     1.20200
Mn475      Mn  0.49162924  0.50669006  0.58573521     1.10100
Cl476      Cl  0.49101724  0.50881697  0.49654651    -0.85300
C477        C  0.38375164  0.40779149  0.60451573     0.97100
C478        C  0.38054874  0.60269163  0.60874243     0.96900
C479        C  0.17601765  0.81295698  0.14620996    -0.12600
C480        C  0.18440881  0.82506050  0.19296551     0.09500
C481        C  0.15883699  0.86198073  0.21183555    -0.12600
C482        C  0.12878979  0.88806741  0.18405197    -0.12600
C483        C  0.12192580  0.87691868  0.13699776     0.09500
C484        C  0.14544111  0.83863156  0.11856607    -0.12600
H485        H  0.19323501  0.78344528  0.13094633     0.13500
H486        H  0.16078129  0.87019625  0.24838868     0.13500
H487        H  0.11012708  0.91646616  0.19975958     0.13500
H488        H  0.14026925  0.82851335  0.08268357     0.13500
C489        C  0.33547392  0.67611311  0.28642335    -0.12600
C490        C  0.30077083  0.70467559  0.30535167     0.09500
C491        C  0.29183049  0.70069468  0.35337350    -0.12600
C492        C  0.31826296  0.67112904  0.38172829    -0.12600
C493        C  0.35433844  0.64448775  0.36284943     0.09500
C494        C  0.36229487  0.64723920  0.31477383    -0.12600
H495        H  0.34166341  0.67512244  0.24945803     0.13500
H496        H  0.26453420  0.72094740  0.36911291     0.13500
H497        H  0.31082113  0.66951185  0.41852785     0.13500
H498        H  0.38887924  0.62627103  0.29873903     0.13500
C499        C  0.33683667  0.34875886  0.71254388    -0.12600
C500        C  0.29674440  0.32687032  0.69567363     0.09500
C501        C  0.28331679  0.33594001  0.64944755    -0.12600
C502        C  0.31132781  0.36213237  0.61989354    -0.12600
C503        C  0.35314853  0.38089873  0.63598443     0.09500
C504        C  0.36498480  0.37470984  0.68297826    -0.12600
H505        H  0.34663967  0.34617807  0.74867474     0.13500
H506        H  0.25169011  0.32142523  0.63564526     0.13500
H507        H  0.30055184  0.36710958  0.58420905     0.13500
H508        H  0.39605702  0.39011788  0.69707408     0.13500
C509        C  0.18246565  0.21037558  0.85572126    -0.12600
C510        C  0.18328038  0.20414329  0.80705167     0.09500
C511        C  0.15378068  0.17052206  0.78790071    -0.12600
C512        C  0.12762633  0.14161716  0.81643118    -0.12600
C513        C  0.12833616  0.14674458  0.86499060     0.09500
C514        C  0.15540773  0.18207733  0.88429077    -0.12600
H515        H  0.20330005  0.23697243  0.87175728     0.13500
H516        H  0.14973919  0.16692211  0.75079524     0.13500
H517        H  0.10585552  0.11584074  0.80027328     0.13500
H518        H  0.15610768  0.18745422  0.92153610     0.13500
C519        C  0.78913455  0.15610728  0.17746379    -0.12600
C520        C  0.79308216  0.20457310  0.17717101     0.09500
C521        C  0.82329636  0.22375167  0.14419091    -0.12600
C522        C  0.85250386  0.19561040  0.11720327    -0.12600
C523        C  0.85186882  0.14742838  0.12198193     0.09500
C524        C  0.81925877  0.12804206  0.15184823    -0.12600
H525        H  0.76206162  0.13936179  0.19667073     0.13500
H526        H  0.82423371  0.26052150  0.13885077     0.13500
H527        H  0.87609939  0.21164455  0.09309083     0.13500
H528        H  0.81623142  0.09101027  0.15452171     0.13500
C529        C  0.63206180  0.34266521  0.27645111    -0.12600
C530        C  0.67130186  0.31836488  0.29202004     0.09500
C531        C  0.68518476  0.32515217  0.33866492    -0.12600
C532        C  0.66004801  0.35379793  0.36892405    -0.12600
C533        C  0.62023755  0.37688456  0.35348359     0.09500
C534        C  0.60654820  0.37080862  0.30687455    -0.12600
H535        H  0.62165856  0.34166988  0.24048658     0.13500
H536        H  0.71607739  0.30844062  0.35169346     0.13500
H537        H  0.67191691  0.35800574  0.40439255     0.13500
H538        H  0.57661186  0.38886736  0.29342402     0.13500
C539        C  0.69659494  0.68706158  0.64533389    -0.12600
C540        C  0.68244111  0.70241399  0.68974924     0.09500
C541        C  0.64087920  0.68414135  0.70725004    -0.12600
C542        C  0.61290041  0.65480719  0.67998145    -0.12600
C543        C  0.62641734  0.64136544  0.63490547     0.09500
C544        C  0.66892603  0.65763902  0.61830199    -0.12600
H545        H  0.72968556  0.69706670  0.63134469     0.13500
H546        H  0.63001772  0.69218164  0.74225983     0.13500
H547        H  0.58093277  0.64211592  0.69450595     0.13500
H548        H  0.68121477  0.64722507  0.58434034     0.13500
C549        C  0.79517478  0.86626827  0.80926913    -0.12600
C550        C  0.80591878  0.81972308  0.79956282     0.09500
C551        C  0.85087590  0.80460254  0.81120677    -0.12600
C552        C  0.88021229  0.83173740  0.83887094    -0.12600
C553        C  0.86705977  0.87637748  0.85214907     0.09500
C554        C  0.82512688  0.89404523  0.83552402    -0.12600
H555        H  0.76393274  0.88182835  0.79593238     0.13500
H556        H  0.86388232  0.77201004  0.79867464     0.13500
H557        H  0.91366572  0.81824225  0.84904545     0.13500
H558        H  0.81515287  0.92914289  0.84352058     0.13500
C559        C  0.37557786  0.16795758  0.85724008    -0.15700
C560        C  0.37733072  0.20461921  0.82925131    -0.30900
H561        H  0.34407635  0.14830042  0.86094649     0.13300
H562        H  0.40921302  0.22424442  0.82721841     0.13900
C563        C  0.60824038  0.21979006  0.12752108    -0.15700
C564        C  0.61351914  0.18584467  0.09611601    -0.30900
H565        H  0.57524031  0.23760381  0.13002287     0.13300
H566        H  0.64629817  0.16810166  0.09263408     0.13900
C567        C  0.61235042  0.81788232  0.87080172    -0.15700
C568        C  0.61186963  0.83084499  0.82613130    -0.30900
H569        H  0.64270347  0.79984648  0.88378532     0.13300
H570        H  0.58306559  0.84980088  0.81134134     0.13900
C571        C  0.36958721  0.80342194  0.10254143    -0.15700
C572        C  0.37173630  0.80412961  0.14904915    -0.30900
H573        H  0.33725263  0.79298183  0.08639652     0.13300
H574        H  0.40319433  0.81370326  0.16723887     0.13900
C575        C  0.84430355  0.17830707  0.78522792    -0.12600
C576        C  0.80367352  0.19896911  0.80287036     0.09500
C577        C  0.79594716  0.19569972  0.85112622    -0.12600
C578        C  0.82523810  0.16904972  0.87955387    -0.12600
C579        C  0.86290840  0.14497655  0.86037989     0.09500
C580        C  0.87244113  0.15048251  0.81309258    -0.12600
H581        H  0.85510207  0.18377984  0.74981015     0.13500
H582        H  0.76690906  0.21338029  0.86681382     0.13500
H583        H  0.81790469  0.16646042  0.91632167     0.13500
H584        H  0.90252161  0.13414764  0.79783475     0.13500
C585        C  0.69100157  0.31670727  0.63736445    -0.12600
C586        C  0.68100087  0.30851060  0.68469858     0.09500
C587        C  0.64393655  0.33343791  0.70429487    -0.12600
C588        C  0.61659082  0.36338227  0.67719863    -0.12600
C589        C  0.62620265  0.37059987  0.62979690     0.09500
C590        C  0.66394152  0.34688873  0.61041162    -0.12600
H591        H  0.72074271  0.30105511  0.62103156     0.13500
H592        H  0.63622074  0.32999802  0.74087993     0.13500
H593        H  0.58836383  0.38165641  0.69370530     0.13500
H594        H  0.67291860  0.35200788  0.57430975     0.13500
C595        C  0.60720926  0.18557132  0.82317552    -0.15700
C596        C  0.61111435  0.15360870  0.85659820    -0.30900
H597        H  0.57494586  0.20455579  0.81965647     0.13300
H598        H  0.64310842  0.13479489  0.86158835     0.13900
C599        C  0.12860606  0.38776310  0.77459400    -0.15700
C600        C  0.09400943  0.38504023  0.80532883    -0.30900
H601        H  0.13209289  0.41847308  0.75345656     0.13300
H602        H  0.08919551  0.35451707  0.82622154     0.13900
C603        C  0.85968205  0.62761452  0.82582541    -0.15700
C604        C  0.81882653  0.62411525  0.80366969    -0.30900
H605        H  0.87061096  0.65995619  0.84092321     0.13300
H606        H  0.80981227  0.59183674  0.78676352     0.13900
C607        C  0.82189085  0.39053838  0.79201494    -0.15700
C608        C  0.85651405  0.38974368  0.82309388    -0.30900
H609        H  0.81716460  0.42067359  0.77021923     0.13300
H610        H  0.86261331  0.35994480  0.84474235     0.13900
C611        C  0.15336605  0.79443354  0.84677517    -0.12600
C612        C  0.17774666  0.81049136  0.80771137     0.09500
C613        C  0.18062551  0.85861963  0.80190361    -0.12600
C614        C  0.15523570  0.88893704  0.83001328    -0.12600
C615        C  0.12840380  0.87217240  0.86664561     0.09500
C616        C  0.12871123  0.82471231  0.87541737    -0.12600
H617        H  0.15444155  0.75881398  0.85694160     0.13500
H618        H  0.20329396  0.87311231  0.77606762     0.13500
H619        H  0.15722343  0.92556681  0.82359561     0.13500
H620        H  0.10970145  0.81079022  0.90447515     0.13500
C621        C  0.32755649  0.66380805  0.71373258    -0.12600
C622        C  0.29168624  0.68975819  0.69317323     0.09500
C623        C  0.28266304  0.68203613  0.64557160    -0.12600
C624        C  0.31131368  0.65368047  0.61868932    -0.12600
C625        C  0.34962947  0.63139450  0.63847224     0.09500
C626        C  0.35690129  0.63595114  0.68659580    -0.12600
H627        H  0.33311259  0.66511038  0.75086661     0.13500
H628        H  0.25289193  0.69709431  0.62872713     0.13500
H629        H  0.30356100  0.64949573  0.58208738     0.13500
H630        H  0.38494111  0.61760168  0.70335285     0.13500
C631        C  0.36195059  0.78980480  0.84829283    -0.15700
C632        C  0.36883165  0.82921744  0.87158814    -0.30900
H633        H  0.38486599  0.76062090  0.85390168     0.13300
H634        H  0.34567945  0.85826650  0.86659490     0.13900
C635        C  0.13144098  0.62182977  0.77237674    -0.15700
C636        C  0.09589844  0.62367483  0.80215381    -0.30900
H637        H  0.13567366  0.59213708  0.74966939     0.13300
H638        H  0.09124725  0.65293422  0.82515816     0.13900
C639        C  0.72693154  0.14298331  0.35424492    -0.15700
C640        C  0.75161686  0.10379430  0.35208962    -0.30900
H641        H  0.70705365  0.15082011  0.38529733     0.13300
H642        H  0.76869394  0.09328119  0.32030656     0.13900
C643        C  0.76081023  0.86124013  0.61778426    -0.15700
C644        C  0.78115393  0.90248182  0.62061196    -0.32900
H645        H  0.74079180  0.85270796  0.58687713     0.13300
H646        H  0.79895464  0.91382738  0.65176359     0.13900
C647        C  0.75739906  0.13521464  0.62776252    -0.15700
C648        C  0.73426446  0.13338723  0.58763266    -0.30900
H649        H  0.77860269  0.10597548  0.63805288     0.13300
H650        H  0.71565916  0.16317837  0.57473252     0.13900
C651        C  0.32203458  0.89298162  0.38056139    -0.15700
C652        C  0.28973584  0.89609030  0.34727585    -0.30900
H653        H  0.34326034  0.86239648  0.38399991     0.13300
H654        H  0.26831278  0.92687762  0.34543614     0.13900
C655        C  0.24200234  0.10902792  0.62751568    -0.15700
C656        C  0.26751932  0.14698966  0.63363191    -0.30900
H657        H  0.21308337  0.10165409  0.65019016     0.13300
H658        H  0.29654137  0.15334973  0.61062770     0.13900
C659        C  0.26460952  0.87089051  0.61203645    -0.15700
C660        C  0.22337783  0.86259380  0.63125913    -0.30900
H661        H  0.29300700  0.84676781  0.61598687     0.13300
H662        H  0.19555797  0.88753029  0.62738497     0.13900
C663        C  0.64450218  0.67329132  0.28146639    -0.12600
C664        C  0.68281186  0.69768902  0.29920978     0.09500
C665        C  0.69298315  0.69190303  0.34698271    -0.12600
C666        C  0.66478462  0.66513945  0.37601674    -0.12600
C667        C  0.62574826  0.64230640  0.35840808     0.09500
C668        C  0.61604024  0.64676639  0.31061906    -0.12600
H669        H  0.63666306  0.67441867  0.24471152     0.13500
H670        H  0.72381439  0.70637051  0.36218713     0.13500
H671        H  0.67397998  0.66183018  0.41234766     0.13500
H672        H  0.58690491  0.62884328  0.29541998     0.13500
C673        C  0.79701312  0.85257020  0.18025399    -0.12600
C674        C  0.80048945  0.80425867  0.17431072     0.09500
C675        C  0.82879902  0.78825590  0.13789300    -0.12600
C676        C  0.85524616  0.81911304  0.11126754    -0.12600
C677        C  0.85418010  0.86691277  0.12007581     0.09500
C678        C  0.82411458  0.88320991  0.15450772    -0.12600
H679        H  0.77349201  0.86683215  0.20575825     0.13500
H680        H  0.83028503  0.75218260  0.12914094     0.13500
H681        H  0.87718286  0.80536234  0.08411036     0.13500
H682        H  0.82128884  0.91977728  0.16137724     0.13500
C683        C  0.60993861  0.80666213  0.15036549    -0.15700
C684        C  0.61353058  0.80302003  0.10390956    -0.30900
H685        H  0.57746108  0.81632619  0.16649249     0.13300
H686        H  0.64653575  0.79267852  0.08926238     0.13900
C687        C  0.78488854  0.86081448  0.35081990    -0.15700
C688        C  0.76215186  0.86636233  0.39061811    -0.30900
H689        H  0.80681241  0.88848320  0.33837070     0.13300
H690        H  0.74262522  0.83843520  0.40576455     0.13900
C691        C  0.11137390  0.62726309  0.29131408    -0.15700
C692        C  0.11462953  0.66025621  0.25927107    -0.30900
H693        H  0.13785866  0.62345875  0.31778228     0.13300
H694        H  0.08824210  0.66313445  0.23244667     0.13900
C695        C  0.89090768  0.37988300  0.23477624    -0.15700
C696        C  0.84798884  0.38234278  0.25203009    -0.30900
H697        H  0.90311280  0.34922668  0.21707734     0.13300
H698        H  0.83769762  0.41286057  0.27146745     0.13900
C699        C  0.83845091  0.61536877  0.23220586    -0.15700
C700        C  0.88370656  0.61939161  0.22288380    -0.30900
H701        H  0.82641630  0.58487206  0.25021370     0.13300
H702        H  0.89707267  0.65079745  0.20798988     0.13900
C703        C  0.34635404  0.33930400  0.28081989    -0.12600
C704        C  0.31160391  0.31070341  0.29903819     0.09500
C705        C  0.30074739  0.31602126  0.34656580    -0.12600
C706        C  0.32509364  0.34705922  0.37514410    -0.12600
C707        C  0.36114028  0.37381946  0.35708594     0.09500
C708        C  0.37133062  0.36953318  0.30952681    -0.12600
H709        H  0.35351085  0.34001017  0.24411541     0.13500
H710        H  0.27304413  0.29613149  0.36164443     0.13500
H711        H  0.31583777  0.34993738  0.41146309     0.13500
H712        H  0.39795137  0.39058187  0.29406908     0.13500
C713        C  0.16277465  0.15847228  0.21055745    -0.12600
C714        C  0.19315133  0.18956952  0.18883071     0.09500
C715        C  0.18739852  0.19655216  0.14069180    -0.12600
C716        C  0.15523884  0.17090965  0.11482722    -0.12600
C717        C  0.12725784  0.13774799  0.13623210     0.09500
C718        C  0.13127369  0.13201705  0.18452270    -0.12600
H719        H  0.16253150  0.15505855  0.24790535     0.13500
H720        H  0.20729256  0.22247737  0.12286910     0.13500
H721        H  0.15222117  0.17716140  0.07787989     0.13500
H722        H  0.10905366  0.10803655  0.20242523     0.13500
C723        C  0.37402720  0.19297159  0.09523270    -0.15700
C724        C  0.37881738  0.22085968  0.13228800    -0.30900
H725        H  0.34080855  0.17780436  0.08725826     0.13300
H726        H  0.41178752  0.23763479  0.13853678     0.13900
C727        C  0.30237761  0.12784335  0.39532445    -0.15700
C728        C  0.28191350  0.12281724  0.35375793    -0.30900
H729        H  0.31539209  0.16104744  0.40647371     0.13300
H730        H  0.26640992  0.08985189  0.34495031     0.13900
C731        C  0.12601610  0.35637916  0.25581593    -0.15700
C732        C  0.12299580  0.38992473  0.28767695    -0.30900
H733        H  0.09862342  0.35243558  0.23016917     0.13300
H734        H  0.15036039  0.39505386  0.31299836     0.13900
loop_ 
_geom_bond_atom_site_label_1 
_geom_bond_atom_site_label_2 
_geom_bond_distance 
_geom_bond_site_symmetry_2 
_ccdc_geom_bond_type 
C1            C3   1.552       .  S
C1            C5   1.533       .  S
C1            C4   1.538       .  S
C1          C704   1.544       .  S
C2            C6   1.539       .  S
C2            C8   1.520       .  S
C2            C7   1.539       .  S
C2          C714   1.543       .  S
C3           C11   1.387       .  A
C3            C6   1.415       .  A
C4           C15   1.375       .  A
C4            C7   1.399       .  A
C5           C19   1.374       .  A
C5            C8   1.390       .  A
C6            C9   1.373       .  A
C7           C13   1.373       .  A
C8           C16   1.368       .  A
C9           N10   1.353       .  A
C9           H22   1.080       .  S
N10          C11   1.353       .  A
N10         C724   1.439       .  S
C11          H12   1.081       .  S
C13          N14   1.354       .  A
C13          H23   1.082       .  S
N14          C15   1.360       .  A
N14         C728   1.435       .  S
C15          H21   1.081       .  S
C16          N17   1.352       .  A
C16          H18   1.083       .  S
N17          C19   1.360       .  A
N17         C731   1.430       .  S
C19          H20   1.082       .  S
N24          C29   1.349       .  A
N24          C28   1.351       .  A
N24          H56   1.041       .  S
N25          C32   1.349       .  A
N25          C33   1.348   1_455  A
N26          C31   1.353       .  A
N26          C30   1.350       .  A
N26          H57   1.041       .  S
N27          C34   1.349   1_655  A
N27          C35   1.349       .  A
C28          C36   1.387       .  A
C28          C44   1.406       .  A
C29          C45   1.406       .  A
C29          C37   1.388       .  A
C30          C38   1.386       .  A
C30          C47   1.411       .  A
C31          C46   1.413       .  A
C31          C39   1.387       .  A
C32          C44   1.408       .  A
C32          C40   1.386       .  A
C33          C47   1.406       .  A
C33          C41   1.387       .  A
C34          C42   1.386       .  A
C34          C45   1.408       .  A
C35          C43   1.386       .  A
C35          C46   1.408       .  A
C36          C37   1.371       .  A
C36          H48   1.082       .  S
C37          H49   1.083       .  S
C38          C39   1.375       .  A
C38          H50   1.082       .  S
C39          H51   1.082       .  S
C40          C41   1.371   1_455  A
C40          H52   1.082       .  S
C41          H53   1.082       .  S
C42          C43   1.373   1_455  A
C42          H54   1.082       .  S
C43          H55   1.082       .  S
C44         C732   1.478       .  S
C45         C691   1.475       .  S
C46         C700   1.486       .  S
C47         C695   1.477       .  S
C58          C60   1.546       .  S
C58          C62   1.532       .  S
C58          C61   1.533       .  S
C58         C674   1.553       .  S
C59          C63   1.545       .  S
C59          C65   1.532       .  S
C59          C64   1.547       .  S
C59         C664   1.556       .  S
C60          C68   1.385       .  A
C60          C63   1.423       .  A
C61          C72   1.369       .  A
C61          C64   1.407       .  A
C62          C76   1.370       .  A
C62          C65   1.391       .  A
C63          C66   1.376       .  A
C64          C70   1.382       .  A
C65          C73   1.380       .  A
C66          N67   1.347       .  A
C66          H79   1.083       .  S
N67          C68   1.357       .  A
N67         C699   1.439       .  S
C68          H69   1.078       .  S
C70          N71   1.357       .  A
C70          H80   1.080       .  S
N71          C72   1.342       .  A
N71         C687   1.429       .  S
C72          H78   1.081       .  S
C73          N74   1.357       .  A
C73          H75   1.082       .  S
N74          C76   1.354       .  A
N74         C683   1.433       .  S
C76          H77   1.083       .  S
N81          C86   1.349   1_545  A
N81          C85   1.351       .  A
N81         H113   1.037       .  S
N82          C89   1.351       .  A
N82          C90   1.349       .  A
N83          C88   1.351       .  A
N83          C87   1.351   1_565  A
N83         H114   1.038       .  S
N84          C91   1.350       .  A
N84          C92   1.349       .  A
C85          C93   1.388       .  A
C85         C101   1.414       .  A
C86         C102   1.408       .  A
C86          C94   1.385       .  A
C87          C95   1.388       .  A
C87         C104   1.410       .  A
C88         C103   1.410       .  A
C88          C96   1.386       .  A
C89         C101   1.410       .  A
C89          C97   1.386       .  A
C90         C104   1.413       .  A
C90          C98   1.387       .  A
C91          C99   1.388       .  A
C91         C102   1.409       .  A
C92         C100   1.386       .  A
C92         C103   1.405       .  A
C93          C94   1.374   1_545  A
C93         H105   1.082       .  S
C94         H106   1.082       .  S
C95          C96   1.374   1_545  A
C95         H107   1.082       .  S
C96         H108   1.082       .  S
C97          C98   1.369       .  A
C97         H109   1.082       .  S
C98         H110   1.082       .  S
C99         C100   1.366       .  A
C99         H111   1.082       .  S
C100        H112   1.083       .  S
C101        C727   1.483       .  S
C102        C651   1.473       .  S
C103        C659   1.474       .  S
C104        C655   1.479       .  S
N115        C120   1.348   1_565  A
N115        C119   1.349       .  A
N115        H147   1.041       .  S
N116        C123   1.343       .  A
N116        C124   1.345       .  A
N117        C122   1.347       .  A
N117        C121   1.347   1_545  A
N117        H148   1.042       .  S
N118        C125   1.346       .  A
N118        C126   1.345       .  A
C119        C127   1.389       .  A
C119        C135   1.411       .  A
C120        C136   1.405       .  A
C120        C128   1.385       .  A
C121        C129   1.385       .  A
C121        C138   1.403       .  A
C122        C137   1.409       .  A
C122        C130   1.388       .  A
C123        C135   1.397       .  A
C123        C131   1.384       .  A
C124        C138   1.406       .  A
C124        C132   1.388       .  A
C125        C133   1.388       .  A
C125        C136   1.406       .  A
C126        C134   1.384       .  A
C126        C137   1.399       .  A
C127        C128   1.379   1_565  A
C127        H139   1.082       .  S
C128        H140   1.082       .  S
C129        C130   1.378   1_565  A
C129        H141   1.082       .  S
C130        H142   1.082       .  S
C131        C132   1.370       .  A
C131        H143   1.083       .  S
C132        H144   1.082       .  S
C133        C134   1.371       .  A
C133        H145   1.082       .  S
C134        H146   1.082       .  S
C135        C688   1.468       .  S
C136        C640   1.476       .  S
C137        C648   1.474       .  S
C138        C644   1.473       .  S
C149        C151   1.536       .  S
C149        C153   1.526       .  S
C149        C152   1.541       .  S
C149        C612   1.542       .  S
C150        C154   1.531       .  S
C150        C156   1.535       .  S
C150        C155   1.550       .  S
C150        C622   1.544       .  S
C151        C159   1.374       .  A
C151        C154   1.406       .  A
C152        C163   1.380       .  A
C152        C155   1.417       .  A
C153        C167   1.370       .  A
C153        C156   1.395       .  A
C154        C157   1.379       .  A
C155        C161   1.381       .  A
C156        C164   1.377       .  A
C157        N158   1.349       .  A
C157        H170   1.083       .  S
N158        C159   1.351       .  A
N158        C635   1.433       .  S
C159        H160   1.080       .  S
C161        N162   1.352       .  A
C161        H171   1.081       .  S
N162        C163   1.344       .  A
N162        C660   1.434       .  S
C163        H169   1.080       .  S
C164        N165   1.354       .  A
C164        H166   1.081       .  S
N165        C167   1.350       .  A
N165        C631   1.426       .  S
C167        H168   1.083       .  S
N172        C177   1.348       .  A
N172        C176   1.349       .  A
N172        H204   1.041       .  S
N173        C180   1.349   1_655  A
N173        C181   1.348       .  A
N174        C179   1.349       .  A
N174        C178   1.348       .  A
N174        H205   1.040       .  S
N175        C182   1.348   1_655  A
N175        C183   1.349       .  A
C176        C184   1.387       .  A
C176        C192   1.408       .  A
C177        C193   1.407       .  A
C177        C185   1.387       .  A
C178        C186   1.385       .  A
C178        C195   1.404       .  A
C179        C194   1.408       .  A
C179        C187   1.387       .  A
C180        C192   1.404       .  A
C180        C188   1.386   1_455  A
C181        C195   1.406       .  A
C181        C189   1.387       .  A
C182        C190   1.386   1_455  A
C182        C193   1.405       .  A
C183        C191   1.388       .  A
C183        C194   1.409       .  A
C184        C185   1.374       .  A
C184        H196   1.082       .  S
C185        H197   1.082       .  S
C186        C187   1.375       .  A
C186        H198   1.082       .  S
C187        H199   1.082       .  S
C188        C189   1.370       .  A
C188        H200   1.082   1_655  S
C189        H201   1.083       .  S
C190        C191   1.371       .  A
C190        H202   1.083   1_655  S
C191        H203   1.082       .  S
C192        C600   1.475       .  S
C193        C636   1.471       .  S
C194        C603   1.479       .  S
C195        C608   1.471       .  S
C206        C208   1.534       .  S
C206        C210   1.548       .  S
C206        C209   1.546       .  S
C206        C586   1.550       .  S
C207        C211   1.518       .  S
C207        C213   1.536       .  S
C207        C212   1.534       .  S
C207        C576   1.547       .  S
C208        C216   1.377       .  A
C208        C211   1.390       .  A
C209        C220   1.377       .  A
C209        C212   1.401       .  A
C210        C224   1.385       .  A
C210        C213   1.420       .  A
C211        C214   1.363       .  A
C212        C218   1.368       .  A
C213        C221   1.374       .  A
C214        N215   1.359       .  A
C214        H227   1.081       .  S
N215        C216   1.359       .  A
N215        C607   1.435       .  S
C216        H217   1.083       .  S
C218        N219   1.359       .  A
C218        H228   1.080       .  S
N219        C220   1.360       .  A
N219        C595   1.437       .  S
C220        H226   1.082       .  S
C221        N222   1.338       .  A
C221        H223   1.082       .  S
N222        C224   1.351       .  A
N222        C647   1.427       .  S
C224        H225   1.081       .  S
N229        C234   1.352   1_556  A
N229        C233   1.350       .  A
N229        H261   1.041       .  S
N230        C237   1.350       .  A
N230        C238   1.349       .  A
N231        C236   1.350   1_556  A
N231        C235   1.351       .  A
N231        H262   1.039       .  S
N232        C239   1.350       .  A
N232        C240   1.350       .  A
C233        C241   1.387       .  A
C233        C249   1.410       .  A
C234        C250   1.411       .  A
C234        C242   1.388       .  A
C235        C243   1.387       .  A
C235        C252   1.410       .  A
C236        C251   1.412       .  A
C236        C244   1.388       .  A
C237        C249   1.410       .  A
C237        C245   1.385       .  A
C238        C252   1.413       .  A
C238        C246   1.388       .  A
C239        C247   1.384       .  A
C239        C250   1.409       .  A
C240        C248   1.387       .  A
C240        C251   1.412       .  A
C241        C242   1.376   1_556  A
C241        H253   1.083       .  S
C242        H254   1.082       .  S
C243        C244   1.376   1_556  A
C243        H255   1.082       .  S
C244        H256   1.082       .  S
C245        C246   1.364       .  A
C245        H257   1.080       .  S
C246        H258   1.080       .  S
C247        C248   1.371       .  A
C247        H259   1.082       .  S
C248        H260   1.081       .  S
C249        C567   1.484       .  S
C250        C684   1.488       .  S
C251        C571   1.485       .  S
C252        C632   1.479       .  S
N263        C268   1.348       .  A
N263        C267   1.348       .  A
N263        H295   1.038       .  S
N264        C271   1.351       .  A
N264        C272   1.351   1_556  A
N265        C270   1.352       .  A
N265        C269   1.349       .  A
N265        H296   1.041       .  S
N266        C273   1.348       .  A
N266        C274   1.349   1_556  A
C267        C275   1.387       .  A
C267        C283   1.408       .  A
C268        C284   1.406       .  A
C268        C276   1.386       .  A
C269        C277   1.386       .  A
C269        C286   1.408       .  A
C270        C285   1.411       .  A
C270        C278   1.387       .  A
C271        C283   1.411       .  A
C271        C279   1.387       .  A
C272        C286   1.409       .  A
C272        C280   1.387   1_554  A
C273        C281   1.388       .  A
C273        C284   1.409       .  A
C274        C282   1.386   1_554  A
C274        C285   1.407       .  A
C275        C276   1.377       .  A
C275        H287   1.082       .  S
C276        H288   1.082       .  S
C277        C278   1.375       .  A
C277        H289   1.082       .  S
C278        H290   1.082       .  S
C279        C280   1.370       .  A
C279        H291   1.082       .  S
C280        H292   1.082   1_556  S
C281        C282   1.369       .  A
C281        H293   1.083       .  S
C282        H294   1.082   1_556  S
C283        C596   1.477       .  S
C284        C559   1.470       .  S
C285        C723   1.483       .  S
C286        C564   1.480       .  S
C297        C299   1.531       .  S
C297        C301   1.549       .  S
C297        C300   1.539       .  S
C297        C540   1.551       .  S
C298        C302   1.535       .  S
C298        C304   1.533       .  S
C298        C303   1.534       .  S
C298        C550   1.547       .  S
C299        C307   1.375       .  A
C299        C302   1.393       .  A
C300        C311   1.375       .  A
C300        C303   1.417       .  A
C301        C315   1.381       .  A
C301        C304   1.403       .  A
C302        C305   1.370       .  A
C303        C309   1.377       .  A
C304        C312   1.368       .  A
C305        N306   1.358       .  A
C305        H318   1.077       .  S
N306        C307   1.357       .  A
N306        C604   1.438       .  S
C307        H308   1.083       .  S
C309        N310   1.350       .  A
C309        H319   1.081       .  S
N310        C311   1.344       .  A
N310        C643   1.428       .  S
C311        H317   1.083       .  S
C312        N313   1.349       .  A
C312        H314   1.082       .  S
N313        C315   1.357       .  A
N313        C568   1.426       .  S
C315        H316   1.081       .  S
C320        C322   1.534       .  S
C320        C324   1.540       .  S
C320        C323   1.534       .  S
C320        C520   1.546       .  S
C321        C325   1.534       .  S
C321        C327   1.531       .  S
C321        C326   1.548       .  S
C321        C530   1.543       .  S
C322        C330   1.375       .  A
C322        C325   1.394       .  A
C323        C334   1.369       .  A
C323        C326   1.415       .  A
C324        C338   1.372       .  A
C324        C327   1.394       .  A
C325        C328   1.372       .  A
C326        C332   1.385       .  A
C327        C335   1.373       .  A
C328        N329   1.354       .  A
C328        H341   1.083       .  S
N329        C330   1.361       .  A
N329        C696   1.435       .  S
C330        H331   1.079       .  S
C332        N333   1.353       .  A
C332        H342   1.081       .  S
N333        C334   1.352       .  A
N333        C563   1.436       .  S
C334        H340   1.080       .  S
C335        N336   1.354       .  A
C335        H337   1.082       .  S
N336        C338   1.356       .  A
N336        C639   1.431       .  S
C338        H339   1.079       .  S
C343        C345   1.544       .  S
C343        C347   1.533       .  S
C343        C346   1.524       .  S
C343        C510   1.542       .  S
C344        C348   1.534       .  S
C344        C350   1.546       .  S
C344        C349   1.527       .  S
C344        C500   1.540       .  S
C345        C353   1.381       .  A
C345        C348   1.407       .  A
C346        C357   1.367       .  A
C346        C349   1.390       .  A
C347        C361   1.370       .  A
C347        C350   1.410       .  A
C348        C351   1.372       .  A
C349        C355   1.372       .  A
C350        C358   1.382       .  A
C351        N352   1.348       .  A
C351        H364   1.083       .  S
N352        C353   1.355       .  A
N352        C656   1.430       .  S
C353        H354   1.081       .  S
C355        N356   1.356       .  A
C355        H365   1.083       .  S
N356        C357   1.359       .  A
N356        C599   1.432       .  S
C357        H363   1.081       .  S
C358        N359   1.351       .  A
C358        H360   1.082       .  S
N359        C361   1.353       .  A
N359        C560   1.434       .  S
C361        H362   1.080       .  S
C366        C368   1.532       .  S
C366        C370   1.548       .  S
C366        C369   1.532       .  S
C366        C490   1.545       .  S
C367        C371   1.518       .  S
C367        C373   1.535       .  S
C367        C372   1.542       .  S
C367        C480   1.537       .  S
C368        C376   1.373       .  A
C368        C371   1.389       .  A
C369        C380   1.369       .  A
C369        C372   1.404       .  A
C370        C384   1.386       .  A
C370        C373   1.417       .  A
C371        C374   1.368       .  A
C372        C378   1.377       .  A
C373        C381   1.373       .  A
C374        N375   1.352       .  A
C374        H387   1.083       .  S
N375        C376   1.362       .  A
N375        C692   1.430       .  S
C376        H377   1.082       .  S
C378        N379   1.353       .  A
C378        H388   1.082       .  S
N379        C380   1.356       .  A
N379        C652   1.432       .  S
C380        H386   1.081       .  S
C381        N382   1.347       .  A
C381        H383   1.083       .  S
N382        C384   1.349       .  A
N382        C572   1.429       .  S
C384        H385   1.082       .  S
N389        N390   1.323       .  A
N389        N395   1.318       .  A
N389       Mn418   2.219   1_454  S
N390        C397   1.356       .  A
N391        N393   1.319       .  A
N391        N392   1.329       .  A
N391       Mn407   2.255   1_565  S
N392        C398   1.362       .  A
N393        N394   1.322       .  A
N393       Mn418   2.210   1_554  S
N394        C398   1.352       .  A
N395        N396   1.323       .  A
N395       Mn407   2.221   1_465  S
N396        C397   1.356       .  A
C397        C483   1.490       .  S
C398        C677   1.499       .  S
N399        N405   1.318       .  A
N399        N400   1.322       .  A
N399       Mn429   2.210   1_554  S
N400        C408   1.352       .  A
N401        N402   1.327       .  A
N401        N403   1.319       .  A
N401       Mn407   2.246   1_455  S
N402        C409   1.359       .  A
N403        N404   1.322       .  A
N403       Mn429   2.214   1_454  S
N404        C409   1.354       .  A
N405        N406   1.325       .  A
N405       Mn407   2.231       .  S
N406        C408   1.359       .  A
Mn407      Cl431   2.570   1_554  S
C408        C523   1.490       .  S
C409        C717   1.495       .  S
N410        N411   1.323       .  A
N410        N416   1.318       .  A
N410       Mn418   2.215       .  S
N411        C419   1.353       .  A
N412        N414   1.318       .  A
N412        N413   1.324       .  A
N412       Mn430   2.225   1_465  S
N413        C420   1.357       .  A
N414        N415   1.320       .  A
N414       Mn418   2.202   1_455  S
N415        C420   1.352       .  A
N416        N417   1.325       .  A
N416       Mn430   2.224   1_565  S
N417        C419   1.355       .  A
Mn418      Cl431   2.556   1_565  S
C419        C553   1.482       .  S
C420        C615   1.483       .  S
N421        N422   1.326       .  A
N421        N427   1.317       .  A
N421       Mn429   2.227   1_455  S
N422        C432   1.357       .  A
N423        N424   1.323       .  A
N423        N425   1.318       .  A
N423       Mn430   2.227       .  S
N424        C433   1.357       .  A
N425        N426   1.323       .  A
N425       Mn429   2.215       .  S
N426        C433   1.354       .  A
N427        N428   1.322       .  A
N427       Mn430   2.215   1_455  S
N428        C432   1.355       .  A
Mn429      Cl431   2.554       .  S
Mn430      Cl431   2.566       .  S
C432        C513   1.492       .  S
C433        C579   1.486       .  S
N434        N435   1.327       .  A
N434        N440   1.318       .  A
N434       Mn463   2.243       .  S
N435        C442   1.361       .  A
N436        N438   1.319       .  A
N436        N437   1.325       .  A
N436       Mn452   2.222       .  S
N437        C443   1.355       .  A
N438        N439   1.328       .  A
N438       Mn463   2.252       .  S
N439        C443   1.361       .  A
N440        N441   1.321       .  A
N440       Mn452   2.208       .  S
N441        C442   1.352       .  A
C442        C533   1.495       .  S
C443        C667   1.504       .  S
N444        N450   1.318       .  A
N444        N445   1.328       .  A
N444       Mn474   2.241       .  S
N445        C453   1.359       .  A
N446        N447   1.322       .  A
N446        N448   1.317       .  A
N446       Mn452   2.215       .  S
N447        C454   1.354       .  A
N448        N449   1.327       .  A
N448       Mn474   2.234       .  S
N449        C454   1.359       .  A
N450        N451   1.323       .  A
N450       Mn452   2.219       .  S
N451        C453   1.355       .  A
Mn452      Cl476   2.563       .  S
C453        C493   1.498       .  S
C454        C707   1.496       .  S
N455        N456   1.325       .  A
N455        N461   1.320       .  A
N455       Mn463   2.241       .  S
N456        C464   1.358       .  A
N457        N459   1.319       .  A
N457        N458   1.325       .  A
N457       Mn475   2.228       .  S
N458        C465   1.356       .  A
N459        N460   1.328       .  A
N459       Mn463   2.250       .  S
N460        C465   1.361       .  A
N461        N462   1.327       .  A
N461       Mn475   2.235       .  S
N462        C464   1.358       .  A
Mn463      Cl476   2.572       .  S
C464        C543   1.503       .  S
C465        C589   1.504       .  S
N466        N467   1.325       .  A
N466        N472   1.320       .  A
N466       Mn474   2.230       .  S
N467        C477   1.357       .  A
N468        N469   1.326       .  A
N468        N470   1.320       .  A
N468       Mn475   2.227       .  S
N469        C478   1.356       .  A
N470        N471   1.322       .  A
N470       Mn474   2.219       .  S
N471        C478   1.354       .  A
N472        N473   1.323       .  A
N472       Mn475   2.222       .  S
N473        C477   1.355       .  A
Mn474      Cl476   2.569       .  S
Mn475      Cl476   2.568       .  S
C477        C503   1.494       .  S
C478        C625   1.491       .  S
C479        C480   1.410       .  A
C479        C484   1.403       .  A
C479        H485   1.083       .  S
C480        C481   1.409       .  A
C481        C482   1.403       .  A
C481        H486   1.079       .  S
C482        C483   1.405       .  A
C482        H487   1.083       .  S
C483        C484   1.405       .  A
C484        H488   1.083       .  S
C489        C490   1.410       .  A
C489        C494   1.404       .  A
C489        H495   1.080       .  S
C490        C491   1.412       .  A
C491        C492   1.410       .  A
C491        H496   1.083       .  S
C492        C493   1.407       .  A
C492        H497   1.083       .  S
C493        C494   1.406       .  A
C494        H498   1.083       .  S
C499        C500   1.409       .  A
C499        C504   1.404       .  A
C499        H505   1.080       .  S
C500        C501   1.411       .  A
C501        C502   1.405       .  A
C501        H506   1.083       .  S
C502        C503   1.405       .  A
C502        H507   1.083       .  S
C503        C504   1.407       .  A
C504        H508   1.083       .  S
C509        C510   1.412       .  A
C509        C514   1.407       .  A
C509        H515   1.083       .  S
C510        C511   1.409       .  A
C511        C512   1.402       .  A
C511        H516   1.079       .  S
C512        C513   1.405       .  A
C512        H517   1.083       .  S
C513        C514   1.405       .  A
C514        H518   1.083       .  S
C519        C520   1.414       .  A
C519        C524   1.401       .  A
C519        H525   1.079       .  S
C520        C521   1.410       .  A
C521        C522   1.407       .  A
C521        H526   1.081       .  S
C522        C523   1.408       .  A
C522        H527   1.083       .  S
C523        C524   1.400       .  A
C524        H528   1.083       .  S
C529        C530   1.408       .  A
C529        C534   1.405       .  A
C529        H535   1.078       .  S
C530        C531   1.414       .  A
C531        C532   1.405       .  A
C531        H536   1.083       .  S
C532        C533   1.403       .  A
C532        H537   1.083       .  S
C533        C534   1.408       .  A
C534        H538   1.083       .  S
C539        C540   1.414       .  A
C539        C544   1.405       .  A
C539        H545   1.081       .  S
C540        C541   1.411       .  A
C541        C542   1.412       .  A
C541        H546   1.081       .  S
C542        C543   1.410       .  A
C542        H547   1.083       .  S
C543        C544   1.405       .  A
C544        H548   1.083       .  S
C549        C550   1.414       .  A
C549        C554   1.403       .  A
C549        H555   1.080       .  S
C550        C551   1.412       .  A
C551        C552   1.404       .  A
C551        H556   1.079       .  S
C552        C553   1.403       .  A
C552        H557   1.083       .  S
C553        C554   1.400       .  A
C554        H558   1.083       .  S
C559        C560   1.340       .  D
C559        H561   1.083       .  S
C560        H562   1.088       .  S
C563        C564   1.344       .  D
C563        H565   1.087       .  S
C564        H566   1.083       .  S
C567        C568   1.341       .  D
C567        H569   1.087       .  S
C568        H570   1.085       .  S
C571        C572   1.340       .  D
C571        H573   1.087       .  S
C572        H574   1.085       .  S
C575        C576   1.413       .  A
C575        C580   1.399       .  A
C575        H581   1.080       .  S
C576        C577   1.411       .  A
C577        C578   1.409       .  A
C577        H582   1.082       .  S
C578        C579   1.406       .  A
C578        H583   1.083       .  S
C579        C580   1.400       .  A
C580        H584   1.083       .  S
C585        C586   1.415       .  A
C585        C590   1.408       .  A
C585        H591   1.080       .  S
C586        C587   1.410       .  A
C587        C588   1.411       .  A
C587        H592   1.082       .  S
C588        C589   1.410       .  A
C588        H593   1.083       .  S
C589        C590   1.405       .  A
C590        H594   1.083       .  S
C595        C596   1.344       .  D
C595        H597   1.088       .  S
C596        H598   1.083       .  S
C599        C600   1.341       .  D
C599        H601   1.087       .  S
C600        H602   1.083       .  S
C603        C604   1.346       .  D
C603        H605   1.082       .  S
C604        H606   1.087       .  S
C607        C608   1.341       .  D
C607        H609   1.088       .  S
C608        H610   1.083       .  S
C611        C612   1.411       .  A
C611        C616   1.399       .  A
C611        H617   1.077       .  S
C612        C613   1.412       .  A
C613        C614   1.401       .  A
C613        H618   1.081       .  S
C614        C615   1.401       .  A
C614        H619   1.083       .  S
C615        C616   1.403       .  A
C616        H620   1.083       .  S
C621        C622   1.411       .  A
C621        C626   1.407       .  A
C621        H627   1.081       .  S
C622        C623   1.411       .  A
C623        C624   1.400       .  A
C623        H628   1.080       .  S
C624        C625   1.403       .  A
C624        H629   1.083       .  S
C625        C626   1.406       .  A
C626        H630   1.083       .  S
C631        C632   1.340       .  D
C631        H633   1.087       .  S
C632        H634   1.086       .  S
C635        C636   1.341       .  D
C635        H637   1.087       .  S
C636        H638   1.084       .  S
C639        C640   1.344       .  D
C639        H641   1.087       .  S
C640        H642   1.083       .  S
C643        C644   1.339       .  D
C643        H645   1.088       .  S
C644        H646   1.084       .  S
C647        C648   1.334       .  D
C647        H649   1.088       .  S
C648        H650   1.084       .  S
C651        C652   1.340       .  D
C651        H653   1.084       .  S
C652        H654   1.088       .  S
C655        C656   1.340       .  D
C655        H657   1.085       .  S
C656        H658   1.088       .  S
C659        C660   1.340       .  D
C659        H661   1.084       .  S
C660        H662   1.087       .  S
C663        C664   1.411       .  A
C663        C668   1.411       .  A
C663        H669   1.082       .  S
C664        C665   1.416       .  A
C665        C666   1.408       .  A
C665        H670   1.078       .  S
C666        C667   1.404       .  A
C666        H671   1.083       .  S
C667        C668   1.410       .  A
C668        H672   1.083       .  S
C673        C674   1.417       .  A
C673        C678   1.404       .  A
C673        H679   1.083       .  S
C674        C675   1.409       .  A
C675        C676   1.411       .  A
C675        H680   1.078       .  S
C676        C677   1.411       .  A
C676        H681   1.083       .  S
C677        C678   1.401       .  A
C678        H682   1.083       .  S
C683        C684   1.345       .  D
C683        H685   1.085       .  S
C684        H686   1.086       .  S
C687        C688   1.332       .  D
C687        H689   1.088       .  S
C688        H690   1.084       .  S
C691        C692   1.337       .  D
C691        H693   1.085       .  S
C692        H694   1.088       .  S
C695        C696   1.340       .  D
C695        H697   1.083       .  S
C696        H698   1.088       .  S
C699        C700   1.343       .  D
C699        H701   1.087       .  S
C700        H702   1.083       .  S
C703        C704   1.410       .  A
C703        C708   1.404       .  A
C703        H709   1.078       .  S
C704        C705   1.412       .  A
C705        C706   1.408       .  A
C705        H710   1.083       .  S
C706        C707   1.405       .  A
C706        H711   1.083       .  S
C707        C708   1.406       .  A
C708        H712   1.083       .  S
C713        C714   1.412       .  A
C713        C718   1.407       .  A
C713        H719   1.080       .  S
C714        C715   1.411       .  A
C715        C716   1.404       .  A
C715        H720   1.082       .  S
C716        C717   1.406       .  A
C716        H721   1.083       .  S
C717        C718   1.405       .  A
C718        H722   1.083       .  S
C723        C724   1.344       .  D
C723        H725   1.082       .  S
C724        H726   1.087       .  S
C727        C728   1.341       .  D
C727        H729   1.084       .  S
C728        H730   1.088       .  S
C731        C732   1.339       .  D
C731        H733   1.088       .  S
C732        H734   1.085       .  S
