geometry optimzed in LAMMPS
_audit_creation_date              2020-12-01 
_audit_creation_method            'lammps2cif' 
_symmetry_space_group_name_H-M    'P1' 
_symmetry_Int_Tables_number       1 
_symmetry_cell_setting            triclinic 
loop_ 
_symmetry_equiv_pos_as_xyz 
  x,y,z 
_cell_length_a                    37.75650687 
_cell_length_b                    37.84788052464869 
_cell_length_c                    62.309884651609956 
_cell_angle_alpha                 90.03525831856454 
_cell_angle_beta                  90.12996176367474 
_cell_angle_gamma                 90.00089801214592 
loop_ 
_atom_site_label 
_atom_site_type_symbol 
_atom_site_fract_x 
_atom_site_fract_y 
_atom_site_fract_z 
_atom_site_charge 
C1          C  0.43800081  0.31324524  0.35114355     0.79900
N2          N  0.45237892  0.34218359  0.34172603    -0.78400
C3          C  0.43871125  0.35494723  0.32314243     0.82300
N4          N  0.41023801  0.33903941  0.31407539    -0.78400
C5          C  0.39554149  0.31027581  0.32347459     0.82400
N6          N  0.40931945  0.29747642  0.34206610    -0.80100
C7          C  0.39108581  0.35465401  0.17494837     0.79900
N8          N  0.37313995  0.32928646  0.18595411    -0.78400
C9          C  0.38017554  0.32328155  0.20701066     0.82300
N10         N  0.40456592  0.34341720  0.21729255    -0.78400
C11         C  0.42353290  0.36793658  0.20639582     0.82400
N12         N  0.41642235  0.37386684  0.18529473    -0.80100
C13         C  0.16766196  0.35985853  0.35983346     0.79900
N14         N  0.18645928  0.33393814  0.34985394    -0.78400
C15         C  0.17930368  0.32545621  0.32907484     0.82300
N16         N  0.15397209  0.34356142  0.31821948    -0.78400
C17         C  0.13412130  0.36831222  0.32832193     0.82400
N18         N  0.14132693  0.37673305  0.34903453    -0.80100
C19         C  0.43260355  0.12233607  0.18249889     0.79900
N20         N  0.40494285  0.13856978  0.19236719    -0.78400
C21         C  0.39379532  0.12734790  0.21194081     0.82300
N22         N  0.41021565  0.09971096  0.22156546    -0.78400
C23         C  0.43806025  0.08370128  0.21189500     0.82400
N24         N  0.44928331  0.09511745  0.19243990    -0.80100
N25         N  0.98598008  0.42964696  0.22604689    -0.06400
N26         N  0.97675657  0.40702543  0.21081608    -0.58600
N27         N  0.46429213  0.01024575  0.24241942    -0.06100
N28         N  0.44234812  0.03699264  0.23969148    -0.60700
N29         N  0.98863552  0.01000649  0.22735969    -0.05700
N30         N  0.98369928  0.03654130  0.21397179    -0.58500
N31         N  0.46244009  0.42920928  0.24159358    -0.05400
N32         N  0.43729628  0.40593689  0.23755740    -0.61000
C33         C  0.44660712  0.39204427  0.21842003     0.95700
C34         C  0.45489941  0.05319838  0.22195146     0.95500
N35         N  0.98673562  0.00873134  0.30835074    -0.06600
N36         N  0.97784618  0.03134667  0.32361657    -0.59100
N37         N  0.46371943  0.42855202  0.29227994    -0.04700
N38         N  0.44161829  0.40199155  0.29530793    -0.60400
N39         N  0.98841942  0.42879687  0.30732807    -0.06700
N40         N  0.98365147  0.40248687  0.32085145    -0.59400
N41         N  0.46316941  0.00937072  0.29281867    -0.04400
N42         N  0.43818542  0.03274969  0.29696541    -0.60500
Mn43       Mn  0.46255760  0.46946531  0.26704359     1.18400
C44         C  0.44790814  0.04657286  0.31606893     0.97800
C45         C  0.45443879  0.38604201  0.31313520     0.98500
N46         N  0.07266979  0.00796000  0.22654541    -0.06700
N47         N  0.08216493  0.03039137  0.21131461    -0.63000
N48         N  0.09427579  0.42702594  0.24203758    -0.05500
N49         N  0.11682147  0.40091802  0.23891480    -0.63700
N50         N  0.06999730  0.42729612  0.22683458    -0.06200
N51         N  0.07566994  0.40154397  0.21295456    -0.63300
N52         N  0.09603877  0.00824117  0.24223342    -0.05100
N53         N  0.12136837  0.03126879  0.23828963    -0.63900
Mn54       Mn  0.02939583  0.46880368  0.22583236     1.10700
C55         C  0.11228876  0.04506480  0.21910177     0.99000
C56         C  0.10483989  0.38528680  0.22079499     0.99100
N57         N  0.07191920  0.42887069  0.30803722    -0.06200
N58         N  0.08076514  0.40633162  0.32334879    -0.61600
N59         N  0.09526971  0.00949663  0.29276192    -0.05500
N60         N  0.11792945  0.03559448  0.29596817    -0.58300
N61         N  0.07074994  0.00960239  0.30775315    -0.06800
N62         N  0.07625448  0.03552725  0.32151126    -0.61100
N63         N  0.09530337  0.42792624  0.29244335    -0.05800
N64         N  0.12004674  0.40430740  0.29655051    -0.58300
Mn65       Mn  0.02977786  0.46915820  0.30826551     1.20200
Mn66       Mn  0.09628962  0.46809493  0.26715263     1.10100
Cl67       Cl  0.02953255  0.46891410  0.26707860    -0.86300
C68         C  0.11048344  0.39081531  0.31571632     0.96000
C69         C  0.10564281  0.05153636  0.31392399     0.95800
C70         C  0.13209513  0.32034284  0.17969944     0.79900
N71         N  0.11378549  0.34623041  0.18993272    -0.78400
C72         C  0.12315917  0.35614913  0.21010991     0.82300
N73         N  0.15061996  0.33988733  0.22011794    -0.78400
C74         C  0.16838381  0.31342295  0.21018396     0.82400
N75         N  0.15912242  0.30371222  0.18996600    -0.80100
C76         C  0.39181141  0.07961195  0.36016601     0.79900
N77         N  0.37378338  0.10605089  0.35015873    -0.78400
C78         C  0.38100582  0.11414871  0.32936275     0.82300
N79         N  0.40557991  0.09507692  0.31849477    -0.78400
C80         C  0.42465557  0.06967649  0.32860050     0.82400
N81         N  0.41737090  0.06167763  0.34934781    -0.80100
C82         C  0.12612522  0.12083946  0.35383883     0.79900
N83         N  0.15354469  0.13787172  0.34420971    -0.78400
C84         C  0.16579106  0.12657842  0.32486453     0.82300
N85         N  0.15035008  0.09841822  0.31508751    -0.78400
C86         C  0.12257356  0.08178062  0.32444082     0.82400
N87         N  0.11061726  0.09301383  0.34378837    -0.80100
C88         C  0.16935990  0.07981230  0.17589301     0.79900
N89         N  0.14336950  0.06155630  0.18615104    -0.78400
C90         C  0.13599169  0.06837297  0.20708181     0.82300
N91         N  0.15527129  0.09288046  0.21788656    -0.78400
C92         C  0.18030672  0.11213693  0.20760966     0.82400
N93         N  0.18774250  0.10511649  0.18673509    -0.80100
N94         N  0.32108257  0.26022205  0.30857713    -0.06400
N95         N  0.34786547  0.26511478  0.32188930    -0.58600
N96         N  0.23972262  0.28582331  0.29377689    -0.06100
N97         N  0.21662146  0.31106624  0.29782022    -0.60700
N98         N  0.24026713  0.26261320  0.30949213    -0.05700
N99         N  0.21795427  0.27212014  0.32480774    -0.58500
N100        N  0.32106939  0.28443202  0.29340691    -0.05400
N101        N  0.34793549  0.30629560  0.29605863    -0.61000
C102        C  0.36433146  0.29385914  0.31382526     0.95700
C103        C  0.20307770  0.30209258  0.31708431     0.95500
N104        N  0.23861590  0.25994792  0.22802567    -0.06600
N105        N  0.21342256  0.26599160  0.21379106    -0.59100
N106        N  0.31994253  0.28507173  0.24287284    -0.04700
N107        N  0.34341148  0.30990486  0.23866603    -0.60400
N108        N  0.31923682  0.26147892  0.22737342    -0.06700
N109        N  0.34179410  0.27021812  0.21205746    -0.59400
N110        N  0.23854986  0.28446523  0.24303751    -0.04400
N111        N  0.21303076  0.30757018  0.23940597    -0.60500
Mn112      Mn  0.27977070  0.28582957  0.26829638     1.18400
C113        C  0.19763539  0.29561681  0.22116824     0.97800
C114        C  0.35702690  0.30016729  0.21954211     0.98500
N115        N  0.23859411  0.17853202  0.30894164    -0.06700
N116        N  0.21234225  0.17316667  0.32253513    -0.63000
N117        N  0.32023743  0.15336077  0.29409990    -0.05500
N118        N  0.34370937  0.12845046  0.29809918    -0.63700
N119        N  0.31961460  0.17664275  0.30977120    -0.06200
N120        N  0.34229211  0.16751543  0.32503964    -0.63300
N121        N  0.23870592  0.15407632  0.29389092    -0.05100
N122        N  0.21238137  0.13167538  0.29687768    -0.63900
Mn123      Mn  0.27983229  0.21952286  0.30985993     1.10700
C124        C  0.19619806  0.14394118  0.31473950     0.99000
C125        C  0.35745483  0.13768638  0.31729493     0.99100
N126        N  0.32072560  0.17816116  0.22832636    -0.06200
N127        N  0.34676761  0.17303341  0.21459018    -0.61600
N128        N  0.23967561  0.15250185  0.24335133    -0.05500
N129        N  0.21682723  0.12702233  0.23923897    -0.58300
N130        N  0.23993861  0.17579307  0.22768891    -0.06800
N131        N  0.21770870  0.16610486  0.21232713    -0.61100
N132        N  0.32120525  0.15396809  0.24349623    -0.05800
N133        N  0.34780712  0.13188924  0.24042005    -0.58300
Mn134      Mn  0.27951934  0.21881432  0.22727689     1.20200
Mn135      Mn  0.27998039  0.15262529  0.26872763     1.10100
Cl136      Cl  0.27968312  0.21920992  0.26854431    -0.86300
C137        C  0.36344729  0.14418939  0.22237318     0.96000
C138        C  0.20312792  0.13596165  0.21997936     0.95800
C139        C  0.26774114  0.45691521  0.49810640     0.02000
C140        C  0.29700859  0.48029669  0.49766960     0.01900
C141        C  0.31166297  0.49216027  0.51707948    -0.18600
C142        C  0.29824970  0.48097318  0.53690437     0.02000
C143        C  0.26806899  0.45872575  0.53742651     0.01900
C144        C  0.25391334  0.44614998  0.51799820    -0.18600
H145        H  0.23185377  0.42784068  0.51837867     0.04000
H146        H  0.33407988  0.00852605  0.51714949     0.04000
C147        C  0.04827779  0.22807235  0.03729918     0.02000
C148        C  0.01890579  0.20479174  0.03816031     0.01900
C149        C  0.50357202  0.19303622  0.01891761    -0.18600
C150        C  0.01523476  0.20544948  0.99896996     0.02000
C151        C  0.04339114  0.23009863  0.99817022     0.01900
C152        C  0.05999425  0.24043641  0.01733453    -0.18600
H153        H  0.08202178  0.25879713  0.01670790     0.04000
H154        H  0.48157640  0.17463840  0.01951016     0.04000
C155        C  0.01848068  0.23573022  0.49751305     0.02000
C156        C  0.04248701  0.20701822  0.49822237     0.01900
C157        C  0.05303851  0.19363331  0.51823613    -0.18600
C158        C  0.04102033  0.20898691  0.53744674     0.02000
C159        C  0.01639049  0.23715860  0.53657699     0.01900
C160        C  0.00522404  0.25000877  0.51660571    -0.18600
H161        H  0.48650141  0.27197531  0.51592833     0.04000
H162        H  0.07064167  0.17105066  0.51894397     0.04000
C163        C  0.26637666  0.48282213  0.03725581     0.02000
C164        C  0.29004681  0.45373883  0.03682677     0.01900
C165        C  0.30114393  0.44032375  0.01689738    -0.18600
C166        C  0.28846762  0.45451907  0.99755453     0.02000
C167        C  0.26557443  0.48406892  0.99805592     0.01900
C168        C  0.25409273  0.49721417  0.01784902    -0.18600
H169        H  0.23726603  0.01929457  0.01791378     0.04000
H170        H  0.31998257  0.41873614  0.01639130     0.04000
C171        C  0.37213936  0.37662433  0.85162461     0.79900
N172        N  0.40035211  0.39260372  0.84223076    -0.78400
C173        C  0.41329018  0.38025093  0.82331726     0.82300
N174        N  0.39806385  0.35177332  0.81382176    -0.78400
C175        C  0.36988064  0.33577166  0.82310348     0.82400
N176        N  0.35717692  0.34806043  0.84203982    -0.80100
C177        C  0.41609909  0.10951581  0.86057347     0.79900
N178        N  0.39013828  0.12729384  0.84996223    -0.78400
C179        C  0.38282903  0.11955779  0.82913089     0.82300
N180        N  0.40213127  0.09455291  0.81882114    -0.78400
C181        C  0.42693628  0.07550811  0.82954046     0.82400
N182        N  0.43415885  0.08330056  0.85037496    -0.80100
C183        C  0.18510379  0.06685483  0.85278991     0.79900
N184        N  0.15659909  0.05091750  0.84357193    -0.78400
C185        C  0.14346775  0.06304289  0.82462857     0.82300
N186        N  0.15864428  0.09139252  0.81500323    -0.78400
C187        C  0.18697625  0.10748352  0.82416198     0.82400
N188        N  0.19998667  0.09531095  0.84308604    -0.80100
C189        C  0.14235949  0.33372970  0.86127108     0.79900
N190        N  0.12387016  0.35937711  0.85075291    -0.78400
C191        C  0.13028995  0.36625586  0.82972940     0.82300
N192        N  0.15462445  0.34672181  0.81902096    -0.78400
C193        C  0.17405512  0.32191209  0.82942405     0.82400
N194        N  0.16746251  0.31501780  0.85045272    -0.80100
C195        C  0.13360325  0.11336826  0.67748535     0.79900
N196        N  0.16040916  0.13124476  0.68728580    -0.78400
C197        C  0.17054622  0.12242604  0.70751127     0.82300
N198        N  0.15301100  0.09654166  0.71813030    -0.78400
C199        C  0.12729309  0.07766255  0.70813985     0.82400
N200        N  0.11735500  0.08635257  0.68787954    -0.80100
C201        C  0.37695818  0.06741995  0.68196691     0.79900
N202        N  0.35964107  0.09452814  0.69172899    -0.78400
C203        C  0.36982197  0.10547664  0.71161025     0.82300
N204        N  0.39725152  0.08924719  0.72168068    -0.78400
C205        C  0.41404536  0.06172410  0.71220999     0.82400
N206        N  0.40378774  0.05082270  0.69242351    -0.80100
N207        N  0.32254606  0.25957396  0.72673786    -0.06400
N208        N  0.33220271  0.28194306  0.71151352    -0.58600
N209        N  0.34325755  0.17841844  0.74275221    -0.06100
N210        N  0.36515831  0.15168465  0.73981092    -0.60700
N211        N  0.31890151  0.17885118  0.72758497    -0.05700
N212        N  0.32385565  0.15259255  0.71394460    -0.58500
N213        N  0.34597013  0.25966346  0.74239658    -0.05400
N214        N  0.37152292  0.28246847  0.73842650    -0.61000
C215        C  0.36250093  0.29635672  0.71925128     0.95700
C216        C  0.35268864  0.13584544  0.72185011     0.95500
N217        N  0.32110323  0.18091782  0.80888883    -0.06600
N218        N  0.32987642  0.15837691  0.82423063    -0.59100
N219        N  0.34460583  0.26131846  0.79284096    -0.04700
N220        N  0.36657447  0.28812740  0.79554403    -0.60400
N221        N  0.32006815  0.26160361  0.80782151    -0.06700
N222        N  0.32482061  0.28837181  0.82105183    -0.59400
N223        N  0.34449974  0.17985531  0.79330385    -0.04400
N224        N  0.36918404  0.15617464  0.79745875    -0.60500
Mn225      Mn  0.34550538  0.21977649  0.76783545     1.18400
C226        C  0.35959011  0.14277108  0.81664902     0.97800
C227        C  0.35381120  0.30465321  0.81317728     0.98500
N228        N  0.23481902  0.18204200  0.72684872    -0.06700
N229        N  0.22490848  0.15969027  0.71162632    -0.63000
N230        N  0.21402084  0.26314573  0.74260615    -0.05500
N231        N  0.19199997  0.28974931  0.73950472    -0.63700
N232        N  0.23835044  0.26261982  0.72748209    -0.06200
N233        N  0.23328405  0.28869541  0.71374092    -0.63300
N234        N  0.21161304  0.18201981  0.74256655    -0.05100
N235        N  0.18600682  0.15925969  0.73865850    -0.63900
Mn236      Mn  0.27865538  0.22078055  0.72649574     1.10700
C237        C  0.19473490  0.14534117  0.71947255     0.99000
C238        C  0.20439302  0.30541229  0.72151170     0.99100
N239        N  0.23635326  0.26128029  0.80892134    -0.06200
N240        N  0.22730443  0.28341738  0.82442164    -0.61600
N241        N  0.21280899  0.18082962  0.79309806    -0.05500
N242        N  0.19052030  0.15438482  0.79611861    -0.58300
N243        N  0.23744436  0.18072974  0.80808548    -0.06800
N244        N  0.23245549  0.15446930  0.82162855    -0.61100
N245        N  0.21284564  0.26222010  0.79332525    -0.05800
N246        N  0.18779900  0.28542697  0.79764243    -0.58300
Mn247      Mn  0.27878906  0.22114480  0.80902750     1.20200
Mn248      Mn  0.21194056  0.22209894  0.76788136     1.10100
Cl249      Cl  0.27871197  0.22096788  0.76779240    -0.86300
C250        C  0.19725872  0.29862597  0.81695398     0.96000
C251        C  0.20320760  0.13826883  0.81394655     0.95800
C252        C  0.41779888  0.33180029  0.67539293     0.79900
N253        N  0.43637901  0.35736547  0.68591620    -0.78400
C254        C  0.43010151  0.36384759  0.70704449     0.82300
N255        N  0.40576082  0.34415960  0.71768306    -0.78400
C256        C  0.38620531  0.31957623  0.70712790     0.82400
N257        N  0.39275080  0.31299317  0.68610161    -0.80100
C258        C  0.18224775  0.37544844  0.68219797     0.79900
N259        N  0.15502340  0.39187506  0.69240051    -0.78400
C260        C  0.14378581  0.38019996  0.71184101     0.82300
N261        N  0.15993833  0.35212311  0.72114655    -0.78400
C262        C  0.18757778  0.33600633  0.71131150     0.82400
N263        N  0.19876644  0.34772708  0.69184832    -0.80100
N264        N  0.48797198  0.42999572  0.80858441    -0.06400
N265        N  0.46099948  0.42533508  0.82170406    -0.58600
N266        N  0.06959340  0.40518015  0.79418924    -0.06100
N267        N  0.09310664  0.38032528  0.79828556    -0.60700
N268        N  0.06873023  0.42845826  0.80987290    -0.05700
N269        N  0.09125141  0.41934973  0.82523034    -0.58500
N270        N  0.48815481  0.40561586  0.79349037    -0.05400
N271        N  0.46114492  0.38387084  0.79601943    -0.61000
C272        C  0.44452490  0.39656468  0.81363162     0.95700
C273        C  0.10660236  0.38956915  0.81755031     0.95500
N274        N  0.07061716  0.43072593  0.72848800    -0.06600
N275        N  0.09672739  0.42586540  0.71475786    -0.59100
N276        N  0.48975926  0.40399428  0.74288555    -0.04700
N277        N  0.46706117  0.37844533  0.73860869    -0.60400
N278        N  0.49003000  0.42740337  0.72729307    -0.06700
N279        N  0.46794411  0.41775530  0.71182178    -0.59400
N280        N  0.07112647  0.40629242  0.74352320    -0.04400
N281        N  0.09779734  0.38432840  0.74035638    -0.60500
Mn282      Mn  0.02961804  0.40429470  0.76857655     1.18400
C283        C  0.11349240  0.39695931  0.72241182     0.97800
C284        C  0.45347023  0.38743794  0.71931560     0.98500
N285        N  0.06980701  0.01195128  0.80919219    -0.06700
N286        N  0.09638617  0.01710790  0.82263691    -0.63000
N287        N  0.48788566  0.03674267  0.79428054    -0.05500
N288        N  0.46429084  0.06154896  0.79826187    -0.63700
N289        N  0.48866221  0.01344605  0.80991921    -0.06200
N290        N  0.46597273  0.02244470  0.82514957    -0.63300
N291        N  0.06952078  0.03638974  0.79416289    -0.05100
N292        N  0.09603524  0.05863671  0.79701876    -0.63900
Mn293      Mn  0.02849539  0.47099366  0.81002687     1.10700
C294        C  0.11249428  0.04624688  0.81478900     0.99000
C295        C  0.45060685  0.05219463  0.81741615     0.99100
N296        N  0.48727070  0.01120137  0.72864814    -0.06200
N297        N  0.46105023  0.01615252  0.71495846    -0.61600
N298        N  0.06846714  0.03740412  0.74374833    -0.05500
N299        N  0.09153743  0.06268046  0.73977851    -0.58300
N300        N  0.06822751  0.01407392  0.72810204    -0.06800
N301        N  0.09069791  0.02348178  0.71289922    -0.61100
N302        N  0.48682979  0.03552548  0.74377284    -0.05800
N303        N  0.46007887  0.05744684  0.74073746    -0.58300
Mn304      Mn  0.02879726  0.47089221  0.72747414     1.20200
Mn305      Mn  0.02820328  0.03741335  0.76896878     1.10100
Cl306      Cl  0.02866172  0.47091191  0.76873935    -0.86300
C307        C  0.44428423  0.04492701  0.72276954     0.96000
C308        C  0.10544022  0.05347665  0.72065387     0.95800
C309        C  0.21522789  0.01058900  0.90013147    -0.22800
C310        C  0.21964211  0.03656307  0.91595397     0.09200
C311        C  0.21393447  0.07236344  0.91077335     0.09600
C312        C  0.20328628  0.08133697  0.88988715    -0.17700
C313        C  0.19819769  0.05534265  0.87405682    -0.28100
C314        C  0.20498463  0.01948490  0.87915179     0.17900
C315        C  0.23083146  0.02554193  0.93774006     0.11900
C316        C  0.21841897  0.10096499  0.92738238    -0.12500
H317        H  0.19822066  0.10879422  0.88599786     0.12200
C318        C  0.20325753  0.99007427  0.86284639    -0.23300
H319        H  0.22035123  0.98316935  0.90412969     0.07800
C320        C  0.20412788  0.51278269  0.95334234     0.04100
C321        C  0.21699001  0.49965862  0.97291538    -0.20500
C322        C  0.25314690  0.50154458  0.97807626    -0.12800
C323        C  0.27855986  0.01852145  0.96385508     0.12900
C324        C  0.26631523  0.02995792  0.94377126    -0.23300
C325        C  0.16514540  0.51053873  0.94836420    -0.06300
H326        H  0.19894707  0.48697840  0.98401047     0.14400
C327        C  0.31643417  0.02660098  0.96974181    -0.16500
H328        H  0.28456929  0.04248696  0.93272738     0.08700
H329        H  0.18215678  0.97109318  0.86740432     0.06600
H330        H  0.22902765  0.97592453  0.86252930     0.07800
H331        H  0.19812059  0.99944993  0.84631574     0.06800
H332        H  0.24619262  0.10135984  0.93324742     0.01700
H333        H  0.20038050  0.09594474  0.94109479     0.02200
H334        H  0.21221364  0.12749706  0.92075598     0.05700
H335        H  0.15007826  0.49848687  0.96178406     0.04700
H336        H  0.16083146  0.49415436  0.93381683    -0.01100
H337        H  0.15446835  0.53747731  0.94551100     0.00400
H338        H  0.33452470  0.01389052  0.95802922     0.04000
H339        H  0.32355933  0.01755726  0.98610249     0.06000
H340        H  0.32070853  0.05560979  0.96917156     0.06800
C341        C  0.28873714  0.41191386  0.94216196    -0.22800
C342        C  0.32399702  0.41749203  0.93605647     0.09200
C343        C  0.34799762  0.43279307  0.95074830     0.09600
C344        C  0.33597476  0.44289407  0.97112516    -0.17700
C345        C  0.30033018  0.43889318  0.97692331    -0.28100
C346        C  0.27664177  0.42205163  0.96252536     0.17900
C347        C  0.33545409  0.40667399  0.91430544     0.11900
C348        C  0.38621737  0.43865866  0.94486943    -0.12500
H349        H  0.35414310  0.45533627  0.98230253     0.12200
C350        C  0.23880432  0.41367429  0.96824032    -0.23300
H351        H  0.27055910  0.39951100  0.93096107     0.07800
C352        C  0.34218766  0.37096423  0.90931454     0.01300
C353        C  0.35379127  0.36205742  0.88864651    -0.20500
C354        C  0.35944049  0.38808620  0.87296381    -0.12800
C355        C  0.35253050  0.42390216  0.87796409     0.12900
C356        C  0.34035271  0.43270275  0.89858113    -0.23300
C357        C  0.33784062  0.34238405  0.92592325    -0.06300
H358        H  0.35915474  0.33462942  0.88481791     0.14400
C359        C  0.35693821  0.45275382  0.86152984    -0.16500
H360        H  0.33486336  0.46004723  0.90256346     0.08700
H361        H  0.23436465  0.38476242  0.96682604     0.06600
H362        H  0.22065559  0.42745500  0.95697257     0.07800
H363        H  0.23191519  0.42149362  0.98485599     0.06800
H364        H  0.38796133  0.45697187  0.93100759     0.01700
H365        H  0.39869358  0.41306873  0.94055099     0.02200
H366        H  0.40147644  0.45040061  0.95836204     0.05700
H367        H  0.34501402  0.31597287  0.91947926     0.04700
H368        H  0.30987852  0.34128723  0.93132812    -0.01100
H369        H  0.35522776  0.34799002  0.93991416     0.00400
H370        H  0.34848149  0.47884772  0.86788253     0.04000
H371        H  0.34059479  0.44675806  0.84714423     0.06000
H372        H  0.38516601  0.45503112  0.85683118     0.06800
C373        C  0.10102699  0.18169976  0.58379482    -0.22800
C374        C  0.07661026  0.16598575  0.59770593     0.09200
C375        C  0.04045491  0.16484249  0.59203184     0.09600
C376        C  0.02962412  0.17888301  0.57222931    -0.17700
C377        C  0.05403729  0.19472120  0.55822379    -0.28100
C378        C  0.09024475  0.19639286  0.56420339     0.17900
C379        C  0.08973612  0.15136724  0.61825597     0.11900
C380        C  0.01345517  0.14865007  0.60680984    -0.12500
H381        H  0.00198073  0.17743786  0.56760130     0.12200
C382        C  0.11815125  0.21422385  0.55073053    -0.23300
H383        H  0.12871863  0.18285677  0.58840221     0.07800
C384        C  0.10471192  0.11726229  0.61947093     0.04100
C385        C  0.11872307  0.10534561  0.63907658    -0.20500
C386        C  0.11816215  0.12691217  0.65737195    -0.12800
C387        C  0.10172973  0.16055521  0.65632381     0.12900
C388        C  0.08819149  0.17251836  0.63666067    -0.23300
C389        C  0.10585922  0.09356672  0.60006682    -0.06300
H390        H  0.13054340  0.07929504  0.64008767     0.14400
C391        C  0.09686413  0.18409350  0.67564871    -0.16500
H392        H  0.07612903  0.19848447  0.63568532     0.08700
H393        H  0.13830565  0.19450141  0.54576885     0.06600
H394        H  0.13134868  0.23515725  0.56034956     0.07800
H395        H  0.10739615  0.22699699  0.53613970     0.06800
H396        H  0.01324764  0.16309493  0.62231863     0.01700
H397        H  0.02016103  0.12051615  0.60978732     0.02200
H398        H  0.98634440  0.14983598  0.59988479     0.05700
H399        H  0.11813423  0.06761873  0.60381480     0.04700
H400        H  0.12160837  0.10626954  0.58718082    -0.01100
H401        H  0.07853403  0.08875426  0.59412379     0.00400
H402        H  0.11134832  0.20928368  0.67317031     0.04000
H403        H  0.10624221  0.17203957  0.69081308     0.06000
H404        H  0.06825625  0.19002924  0.67769636     0.06800
C405        C  0.44413561  0.32791641  0.61644355    -0.22800
C406        C  0.45619312  0.29291675  0.61492690     0.09200
C407        C  0.45532443  0.27091611  0.63318415     0.09600
C408        C  0.44155716  0.28419268  0.65246347    -0.17700
C409        C  0.42978976  0.31929862  0.65412661    -0.28100
C410        C  0.43117759  0.34149842  0.63593978     0.17900
C411        C  0.47070454  0.28000524  0.59428310     0.11900
C412        C  0.46998714  0.23384984  0.63250237    -0.12500
H413        H  0.44098887  0.26738970  0.66654882     0.12200
C414        C  0.41839729  0.37914325  0.63697882    -0.23300
H415        H  0.44512599  0.34467165  0.60235403     0.07800
C416        C  0.44990654  0.26014228  0.57980638     0.04100
C417        C  0.46551776  0.24681859  0.56104402    -0.20500
C418        C  0.00129260  0.25321087  0.55627277    -0.12800
C419        C  0.02149835  0.27483971  0.57020221     0.12900
C420        C  0.00609490  0.28738630  0.58921097    -0.23300
C421        C  0.41120094  0.25344785  0.58401609    -0.06300
H422        H  0.44989870  0.23092142  0.55007256     0.14400
C423        C  0.05895638  0.28583202  0.56530696    -0.16500
H424        H  0.02170880  0.30337142  0.60014365     0.08700
H425        H  0.42039339  0.39246884  0.62114736     0.06600
H426        H  0.43461968  0.39431957  0.64864899     0.07800
H427        H  0.39023159  0.37970211  0.64205918     0.06800
H428        H  0.49843366  0.23464683  0.62803866     0.01700
H429        H  0.45544309  0.21773724  0.62051157     0.02200
H430        H  0.46775408  0.22047093  0.64830164     0.05700
H431        H  0.39878538  0.23777891  0.57093226     0.04700
H432        H  0.39696868  0.27903842  0.58522175    -0.01100
H433        H  0.40779825  0.23867879  0.59923292     0.00400
H434        H  0.06065609  0.31512078  0.56511419     0.04000
H435        H  0.06824126  0.27624197  0.54949650     0.06000
H436        H  0.07701169  0.27551266  0.57791528     0.06800
C437        C  0.07010757  0.29644726  0.95522367    -0.22800
C438        C  0.08711446  0.27458933  0.94029797     0.09200
C439        C  0.08870135  0.23781560  0.94407337     0.09600
C440        C  0.07340007  0.22381783  0.96279652    -0.17700
C441        C  0.05631656  0.24571946  0.97773972    -0.28100
C442        C  0.05435940  0.28254202  0.97374643     0.17900
C443        C  0.10142466  0.29073873  0.92035474     0.11900
C444        C  0.10618111  0.21334209  0.92825317    -0.12500
H445        H  0.07521214  0.19572271  0.96596455     0.12200
C446        C  0.03535317  0.30797745  0.98839182    -0.23300
H447        H  0.06867372  0.32463259  0.95222078     0.07800
C448        C  0.07856580  0.30279455  0.90399164     0.04100
C449        C  0.09294253  0.31798267  0.88542095    -0.20500
C450        C  0.12974842  0.32124609  0.88255989    -0.12800
C451        C  0.15269518  0.30969618  0.89919801     0.12900
C452        C  0.13817640  0.29447874  0.91782965    -0.23300
C453        C  0.03896554  0.29858979  0.90578759    -0.06300
H454        H  0.07520539  0.32627469  0.87268311     0.14400
C455        C  0.19236675  0.31385773  0.89825979    -0.16500
H456        H  0.15566342  0.28570029  0.93058292     0.08700
H457        H  0.01439428  0.32196544  0.97919102     0.06600
H458        H  0.05445186  0.32773446  0.99470733     0.07800
H459        H  0.02237574  0.29496530  0.00220217     0.06800
H460        H  0.13461845  0.22023379  0.92663448     0.01700
H461        H  0.09302601  0.21574605  0.91236645     0.02200
H462        H  0.10443491  0.18532447  0.93344098     0.05700
H463        H  0.02506153  0.30816953  0.89118255     0.04700
H464        H  0.02890379  0.31396623  0.91965521    -0.01100
H465        H  0.03225324  0.27025981  0.90800899     0.00400
H466        H  0.20162218  0.32863206  0.91262102     0.04000
H467        H  0.20146171  0.32879223  0.88403805     0.06000
H468        H  0.20506151  0.28739239  0.89818498     0.06800
C469        C  0.45898057  0.19762268  0.94834187    -0.22800
C470        C  0.46659058  0.16285847  0.94206979     0.09200
C471        C  0.48946863  0.14202832  0.95477726     0.09600
C472        C  0.00490090  0.15667955  0.97327520    -0.17700
C473        C  0.49787394  0.19173497  0.97931160    -0.28100
C474        C  0.47391774  0.21218309  0.96701485     0.17900
C475        C  0.45247676  0.14952766  0.92136828     0.11900
C476        C  0.99763508  0.10413196  0.94895957    -0.12500
H477        H  0.02278730  0.14096628  0.98299495     0.12200
C478        C  0.46302627  0.24902591  0.97331029    -0.23300
H479        H  0.44133564  0.21351793  0.93856722     0.07800
C480        C  0.41700594  0.13840419  0.91882728     0.04100
C481        C  0.40571651  0.12521475  0.89881460    -0.20500
C482        C  0.42909927  0.12323033  0.88135472    -0.12800
C483        C  0.46419148  0.13603391  0.88376141     0.12900
C484        C  0.47549691  0.14833313  0.90382959    -0.23300
C485        C  0.39131102  0.14014676  0.93723831    -0.06300
H486        H  0.37864287  0.11625752  0.89679892     0.14400
C487        C  0.49011702  0.13890527  0.86544005    -0.16500
H488        H  0.50245015  0.15777731  0.90573946     0.08700
H489        H  0.43376395  0.25020029  0.97491215     0.06600
H490        H  0.47146630  0.26795579  0.96071438     0.07800
H491        H  0.47453180  0.25748747  0.98883852     0.06800
H492        H  0.01094780  0.10303083  0.93311646     0.01700
H493        H  0.47243773  0.08888996  0.94813427     0.02200
H494        H  0.01536441  0.09143509  0.96093129     0.05700
H495        H  0.36477525  0.12995512  0.93261724     0.04700
H496        H  0.38816837  0.16795471  0.94257804    -0.01100
H497        H  0.40135943  0.12402597  0.95082828     0.00400
H498        H  0.49958504  0.16661763  0.86419650     0.04000
H499        H  0.47866318  0.13198128  0.84963887     0.06000
H500        H  0.01327152  0.12128733  0.86852754     0.06800
C501        C  0.34032639  0.48488949  0.59241300    -0.22800
C502        C  0.33784286  0.01829107  0.59743875     0.09200
C503        C  0.32636496  0.04155980  0.58118705     0.09600
C504        C  0.31568741  0.02771575  0.56132088    -0.17700
C505        C  0.31537527  0.49409733  0.55686183    -0.28100
C506        C  0.32995079  0.47110877  0.57249463     0.17900
C507        C  0.34723900  0.03128593  0.61908496     0.11900
C508        C  0.32537933  0.08090516  0.58482978    -0.12500
H509        H  0.30517438  0.04529241  0.54914758     0.12200
C510        C  0.33590392  0.43228854  0.56854716    -0.23300
H511        H  0.35032437  0.46725621  0.60472835     0.07800
C512        C  0.32127661  0.03671072  0.63501005     0.04100
C513        C  0.33164311  0.04935904  0.65527630    -0.20500
C514        C  0.36736164  0.05643218  0.65994137    -0.12800
C515        C  0.39321684  0.05155818  0.64371138     0.12900
C516        C  0.38279694  0.03847344  0.62362652    -0.23300
C517        C  0.28281301  0.02860485  0.63071055    -0.06300
H518        H  0.31189973  0.05304751  0.66767819     0.14400
C519        C  0.43174304  0.06117425  0.64650249    -0.16500
H520        H  0.40249166  0.03457294  0.61120647     0.08700
H521        H  0.32062869  0.41656261  0.58037291     0.06600
H522        H  0.36446805  0.42614802  0.57059312     0.07800
H523        H  0.32821823  0.42396919  0.55212982     0.06800
H524        H  0.35238995  0.09053949  0.58879643     0.01700
H525        H  0.30731116  0.08737634  0.59827212     0.02200
H526        H  0.31599492  0.09526946  0.57035725     0.05700
H527        H  0.26613050  0.03355863  0.64505647     0.04700
H528        H  0.28012183  0.50440758  0.62552176    -0.01100
H529        H  0.27271832  0.04532973  0.61743889     0.00400
H530        H  0.44820646  0.03690251  0.64569483     0.04000
H531        H  0.43746700  0.07511837  0.66172593     0.06000
H532        H  0.43987600  0.07926217  0.63337515     0.06800
C533        C  0.18170434  0.40492296  0.62371383    -0.22800
C534        C  0.21773707  0.41149084  0.62032132     0.09200
C535        C  0.24212484  0.40609074  0.63720051     0.09600
C536        C  0.22978107  0.39400646  0.65716835    -0.17700
C537        C  0.19361239  0.38735630  0.66063985    -0.28100
C538        C  0.16931467  0.39237577  0.64350798     0.17900
C539        C  0.22928459  0.42318591  0.59874188     0.11900
C540        C  0.28105188  0.41331131  0.63415802    -0.12500
H541        H  0.24839515  0.39010481  0.67022193     0.12200
C542        C  0.13050554  0.38322458  0.64497346    -0.23300
H543        H  0.16319569  0.40871356  0.61058281     0.07800
C544        C  0.24009551  0.39868304  0.58299601     0.04100
C545        C  0.25142402  0.41100293  0.56290072    -0.20500
C546        C  0.25175162  0.44725491  0.55807486    -0.12800
C547        C  0.23799182  0.47147237  0.57332380     0.12900
C548        C  0.22780620  0.45918705  0.59364797    -0.23300
C549        C  0.23957503  0.35955883  0.58740073    -0.06300
H550        H  0.26108787  0.39233114  0.55109135     0.14400
C551        C  0.23229828  0.51005249  0.56849816    -0.16500
H552        H  0.21809861  0.47776610  0.60551355     0.08700
H553        H  0.12348718  0.36461078  0.63184751     0.06600
H554        H  0.11440745  0.40758986  0.64314341     0.07800
H555        H  0.12313709  0.37011470  0.66017735     0.06800
H556        H  0.28504586  0.44137090  0.62966333     0.01700
H557        H  0.29179631  0.39626254  0.62123239     0.02200
H558        H  0.29643011  0.40805295  0.64903348     0.05700
H559        H  0.24863318  0.34406820  0.57329915     0.04700
H560        H  0.21218302  0.35110771  0.59132240    -0.01100
H561        H  0.25723986  0.35326286  0.60112067     0.00400
H562        H  0.20403362  0.01131591  0.57007471     0.04000
H563        H  0.23949926  0.51717756  0.55182573     0.06000
H564        H  0.24808864  0.52639737  0.57980194     0.06800
C565        C  0.17388390  0.04769865  0.11792339    -0.22800
C566        C  0.21015250  0.04014233  0.11611472     0.09200
C567        C  0.23284739  0.04648384  0.13370346     0.09600
C568        C  0.21877927  0.06044017  0.15271858    -0.17700
C569        C  0.18239605  0.06751689  0.15476203    -0.28100
C570        C  0.15962231  0.06103954  0.13714181     0.17900
C571        C  0.22400242  0.02525312  0.09577257     0.11900
C572        C  0.27077161  0.53766539  0.13255616    -0.12500
H573        H  0.23617299  0.06489661  0.16632113     0.12200
C574        C  0.12055261  0.06886911  0.13837080    -0.23300
H575        H  0.15668369  0.04283143  0.10428715     0.07800
C576        C  0.22007617  0.98913622  0.09068744     0.04100
C577        C  0.23454375  0.97608776  0.07152935    -0.20500
C578        C  0.25383641  0.99805241  0.05764882    -0.12800
C579        C  0.25773483  0.53423731  0.06298415     0.12900
C580        C  0.24296181  0.04734112  0.08189302    -0.23300
C581        C  0.20118938  0.96427672  0.10565818    -0.06300
H582        H  0.23078584  0.94855421  0.06734158     0.14400
C583        C  0.27993127  0.55919733  0.04978326    -0.16500
H584        H  0.24556167  0.57529775  0.08575960     0.08700
H585        H  0.10706105  0.06390326  0.12279868     0.06600
H586        H  0.11643675  0.09703529  0.14269971     0.07800
H587        H  0.10788560  0.05175468  0.15059248     0.06800
H588        H  0.28394067  0.55322978  0.11976984     0.01700
H589        H  0.27387578  0.50905668  0.12903909     0.02200
H590        H  0.28448982  0.54337900  0.14795791     0.05700
H591        H  0.20110110  0.93676523  0.09943487     0.04700
H592        H  0.17328666  0.97282411  0.10771234    -0.01100
H593        H  0.21464321  0.96423039  0.12152502     0.00400
H594        H  0.26288342  0.58052043  0.04320108     0.04000
H595        H  0.29379360  0.54606075  0.03632521     0.06000
H596        H  0.30063728  0.57125502  0.06013986     0.06800
C597        C  0.10161011  0.18066677  0.45134133    -0.22800
C598        C  0.07639955  0.16780103  0.43676881     0.09200
C599        C  0.04064998  0.16513873  0.44301144     0.09600
C600        C  0.03077443  0.17611700  0.46365132    -0.17700
C601        C  0.05566506  0.19047324  0.47803514    -0.28100
C602        C  0.09178028  0.19185733  0.47199174     0.17900
C603        C  0.08835961  0.15623953  0.41526811     0.11900
C604        C  0.01289103  0.15134672  0.42775866    -0.12500
H605        H  0.00325981  0.17441824  0.46842799     0.12200
C606        C  0.12003523  0.20548996  0.48699870    -0.23300
H607        H  0.12910775  0.18201801  0.44645783     0.07800
C608        C  0.09214867  0.18030772  0.39814104     0.04100
C609        C  0.10498091  0.16814732  0.37830681    -0.20500
C610        C  0.11326454  0.13234552  0.37514237    -0.12800
C611        C  0.10910985  0.10823685  0.39233705     0.12900
C612        C  0.09687771  0.12059650  0.41222423    -0.23300
C613        C  0.08234716  0.21865449  0.40080119    -0.06300
H614        H  0.10801798  0.18652798  0.36510129     0.14400
C615        C  0.11866451  0.06972765  0.39009765    -0.16500
H616        H  0.09400740  0.10241321  0.42554679     0.08700
H617        H  0.14634943  0.20653692  0.47909317     0.06600
H618        H  0.12247848  0.18776177  0.50107174     0.07800
H619        H  0.11351828  0.23249747  0.49257150     0.06800
H620        H  0.01936252  0.12381051  0.42304109     0.01700
H621        H  0.01195927  0.16817433  0.41318138     0.02200
H622        H  0.98612821  0.15141320  0.43512895     0.05700
H623        H  0.08666359  0.23385305  0.38578867     0.04700
H624        H  0.09871550  0.23075130  0.41367339    -0.01100
H625        H  0.05394385  0.22092357  0.40518668     0.00400
H626        H  0.11576887  0.05532135  0.40552288     0.04000
H627        H  0.14662737  0.06717143  0.38483866     0.06000
H628        H  0.10098076  0.05678175  0.37822875     0.06800
C629        C  0.35943453  0.00212480  0.45217264    -0.22800
C630        C  0.33758214  0.02441098  0.44003227     0.09200
C631        C  0.30243254  0.53056430  0.44514274     0.09600
C632        C  0.28970840  0.51551918  0.46421979    -0.17700
C633        C  0.31156614  0.49445424  0.47723146    -0.28100
C634        C  0.34699889  0.98594154  0.47097065     0.17900
C635        C  0.35166900  0.03950658  0.41985132     0.11900
C636        C  0.27754374  0.55118184  0.43096147    -0.12500
H637        H  0.26256150  0.52018720  0.46902344     0.12200
C638        C  0.37116892  0.96134200  0.48316045    -0.23300
H639        H  0.38627955  0.99724860  0.44680258     0.07800
C640        C  0.36830851  0.07292471  0.41915400     0.04100
C641        C  0.38115443  0.08578367  0.39945337    -0.20500
C642        C  0.37854828  0.06540452  0.38070484    -0.12800
C643        C  0.36208092  0.03181971  0.38153614     0.12900
C644        C  0.34875201  0.01937540  0.40110016    -0.23300
C645        C  0.37283422  0.09467695  0.43921318    -0.06300
H646        H  0.39366886  0.11152652  0.39871594     0.14400
C647        C  0.35768639  0.00934092  0.36171355    -0.16500
H648        H  0.34386424  0.49171008  0.40226119     0.08700
H649        H  0.37665130  0.97193168  0.49941787     0.06600
H650        H  0.39700818  0.95796904  0.47492496     0.07800
H651        H  0.35867265  0.93491652  0.48460709     0.06800
H652        H  0.27596761  0.53846281  0.41492504     0.01700
H653        H  0.28851040  0.08013340  0.43215422     0.02200
H654        H  0.25038184  0.55220950  0.43774605     0.05700
H655        H  0.38657253  0.12003859  0.43589281     0.04700
H656        H  0.38882052  0.07972361  0.45111306    -0.01100
H657        H  0.34656712  0.10077456  0.44625069     0.00400
H658        H  0.38401230  0.00172805  0.35533218     0.04000
H659        H  0.34282826  0.02426723  0.34927716     0.06000
H660        H  0.35493025  0.48046396  0.36627845     0.06800
C661        C  0.13544300  0.29593895  0.12057152    -0.22800
C662        C  0.10067005  0.28421003  0.11730507     0.09200
C663        C  0.07604739  0.28564460  0.13426733     0.09600
C664        C  0.08696204  0.29839033  0.15434851    -0.17700
C665        C  0.12193955  0.30953072  0.15782038    -0.28100
C666        C  0.14638198  0.30898596  0.14059660     0.17900
C667        C  0.09034441  0.27059302  0.09597170     0.11900
C668        C  0.03835865  0.27352426  0.13116793    -0.12500
H669        H  0.06829931  0.29901649  0.16753861     0.12200
C670        C  0.18367777  0.32296904  0.14246763    -0.23300
H671        H  0.15403317  0.29525306  0.10733880     0.07800
C672        C  0.07613866  0.29309054  0.08014101     0.04100
C673        C  0.06400372  0.27851948  0.06079672    -0.20500
C674        C  0.06564050  0.24195153  0.05700306    -0.12800
C675        C  0.08242175  0.21984801  0.07228621     0.12900
C676        C  0.09396772  0.23441513  0.09177951    -0.23300
C677        C  0.07322980  0.33231394  0.08385248    -0.06300
H678        H  0.05185028  0.29555081  0.04889254     0.14400
C679        C  0.08944184  0.18119735  0.06840072    -0.16500
H680        H  0.10577926  0.21743166  0.10384004     0.08700
H681        H  0.18791015  0.34385116  0.13021738     0.06600
H682        H  0.20281523  0.30121939  0.13957815     0.07800
H683        H  0.18950116  0.33488987  0.15831861     0.06800
H684        H  0.03800160  0.24548214  0.12603754     0.01700
H685        H  0.02525642  0.28979087  0.11865277     0.02200
H686        H  0.02272145  0.27585560  0.14617770     0.05700
H687        H  0.06143992  0.34606142  0.06980702     0.04700
H688        H  0.09997201  0.34356147  0.08676448    -0.01100
H689        H  0.05625324  0.33760728  0.09800975     0.00400
H690        H  0.11831911  0.17606418  0.06970873     0.04000
H691        H  0.08086492  0.17233412  0.05225436     0.06000
H692        H  0.07554166  0.16518023  0.08070331     0.06800
C693        C  0.97904087  0.20148452  0.09429848    -0.22800
C694        C  0.48160268  0.16543556  0.09881277     0.09200
C695        C  0.49392169  0.14193309  0.08292757     0.09600
C696        C  0.50538851  0.15549919  0.06315632    -0.17700
C697        C  0.50426309  0.19194047  0.05883685    -0.28100
C698        C  0.98916435  0.21496835  0.07429616     0.17900
C699        C  0.46973708  0.15295654  0.12010297     0.11900
C700        C  0.49460492  0.10264398  0.08676483    -0.12500
H701        H  0.51587786  0.13768637  0.05111708     0.12200
C702        C  0.98198652  0.25347225  0.06999610    -0.23300
H703        H  0.96826906  0.21919363  0.10631767     0.07800
C704        C  0.49369762  0.14893397  0.13733270     0.04100
C705        C  0.48076985  0.13892039  0.15753588    -0.20500
C706        C  0.44441166  0.13351698  0.16095213    -0.12800
C707        C  0.42049954  0.13721501  0.14357477     0.12900
C708        C  0.43353368  0.14692594  0.12333742    -0.23300
C709        C  0.53274882  0.15570071  0.13447061    -0.06300
H710        H  0.49907114  0.13575915  0.17083253     0.14400
C711        C  0.38147986  0.12987318  0.14606064    -0.16500
H712        H  0.41541163  0.15006280  0.10994965     0.08700
H713        H  0.99714365  0.26996316  0.08154159     0.06600
H714        H  0.95331884  0.25887181  0.07219491     0.07800
H715        H  0.98892242  0.26154222  0.05344588     0.06800
H716        H  0.46738334  0.09311478  0.09017947     0.01700
H717        H  0.51194817  0.09635784  0.10062964     0.02200
H718        H  0.50472112  0.08805607  0.07257189     0.05700
H719        H  0.04766237  0.15209339  0.14987311     0.04700
H720        H  0.03703554  0.18332351  0.12912907    -0.01100
H721        H  0.54382921  0.13737412  0.12232716     0.00400
H722        H  0.36715115  0.13210888  0.13053106     0.04000
H723        H  0.36950788  0.14916746  0.15731710     0.06000
H724        H  0.37751790  0.10264969  0.15224814     0.06800
C725        C  0.20791605  0.42152375  0.40129868    -0.22800
C726        C  0.20856537  0.39990626  0.41950764     0.09200
C727        C  0.19435330  0.36542077  0.41839415     0.09600
C728        C  0.18098870  0.35279228  0.39873766    -0.17700
C729        C  0.18042972  0.37439961  0.38046668    -0.28100
C730        C  0.19383119  0.40931004  0.38180121     0.17900
C731        C  0.22410463  0.41418408  0.43958952     0.11900
C732        C  0.19281349  0.34226093  0.43801699    -0.12500
H733        H  0.17063142  0.32613928  0.39765578     0.12200
C734        C  0.19440715  0.43344763  0.36254803    -0.23300
H735        H  0.21868658  0.44802762  0.40236416     0.07800
C736        C  0.25974036  0.40773941  0.44524133     0.04100
C737        C  0.27310681  0.42155592  0.46454671    -0.20500
C738        C  0.25196620  0.44253485  0.47800318    -0.12800
C739        C  0.21662545  0.45003314  0.47188876     0.12900
C740        C  0.20308312  0.43554558  0.45279533    -0.23300
C741        C  0.28383187  0.38701405  0.43066712    -0.06300
H742        H  0.30028045  0.41619918  0.46911516     0.14400
C743        C  0.19348322  0.47420046  0.48502928    -0.16500
H744        H  0.17599787  0.44102144  0.44804206     0.08700
H745        H  0.20926087  0.42076831  0.34925009     0.06600
H746        H  0.20738326  0.45908535  0.36624821     0.07800
H747        H  0.16695518  0.43921728  0.35721214     0.06800
H748        H  0.17681085  0.35543982  0.45062799     0.01700
H749        H  0.21988423  0.33745573  0.44431026     0.02200
H750        H  0.18049058  0.31626477  0.43443436     0.05700
H751        H  0.31099997  0.38477847  0.43740832     0.04700
H752        H  0.28567975  0.40043462  0.41486784    -0.01100
H753        H  0.27331957  0.35993759  0.42826193     0.00400
H754        H  0.16747440  0.47884319  0.47715883     0.04000
H755        H  0.20668986  0.50017879  0.48712230     0.06000
H756        H  0.18825584  0.46244997  0.50099501     0.06800
C757        C  0.38507872  0.39032176  0.11762381    -0.22800
C758        C  0.34822241  0.39362993  0.11517668     0.09200
C759        C  0.32578163  0.38217985  0.13189327     0.09600
C760        C  0.34074728  0.36837242  0.15074780    -0.17700
C761        C  0.37765636  0.36622275  0.15361290    -0.28100
C762        C  0.40012868  0.37710863  0.13670465     0.17900
C763        C  0.33368110  0.40947511  0.09511883     0.11900
C764        C  0.28605806  0.38568027  0.13026290    -0.12500
H765        H  0.32339015  0.36037082  0.16369693     0.12200
C766        C  0.43983478  0.37419947  0.13845293    -0.23300
H767        H  0.40215604  0.39854230  0.10459056     0.07800
C768        C  0.33817348  0.44568595  0.09025072     0.04100
C769        C  0.32418954  0.45924598  0.07101972    -0.20500
C770        C  0.30462021  0.43783850  0.05689362    -0.12800
C771        C  0.29883006  0.40195243  0.06225689     0.12900
C772        C  0.31417975  0.38807023  0.08100574    -0.23300
C773        C  0.35670447  0.47031096  0.10561386    -0.06300
H774        H  0.32819960  0.48683767  0.06706304     0.14400
C775        C  0.27514508  0.37858697  0.04885828    -0.16500
H776        H  0.31052755  0.36039937  0.08487022     0.08700
H777        H  0.45309144  0.38183494  0.12324962     0.06600
H778        H  0.44737192  0.34651562  0.14218917     0.07800
H779        H  0.44986810  0.39201375  0.15122887     0.06800
H780        H  0.27578072  0.36904605  0.11698494     0.01700
H781        H  0.27883072  0.41369666  0.12728569     0.02200
H782        H  0.27267767  0.37705109  0.14522861     0.05700
H783        H  0.35652065  0.49799712  0.09970641     0.04700
H784        H  0.38471102  0.46218354  0.10773327    -0.01100
H785        H  0.34310506  0.46977770  0.12139607     0.00400
H786        H  0.27150692  0.35219379  0.05632010     0.04000
H787        H  0.28667648  0.37436083  0.03273217     0.06000
H788        H  0.24836619  0.89207403  0.04788404     0.06800
C789        C  0.47069446  0.25622775  0.39737282    -0.22800
C790        C  0.47345079  0.28165801  0.41364622     0.09200
C791        C  0.46587573  0.31735433  0.40910835     0.09600
C792        C  0.45511305  0.32676972  0.38837051    -0.17700
C793        C  0.45152078  0.30130783  0.37212587    -0.28100
C794        C  0.46001827  0.26559664  0.37656143     0.17900
C795        C  0.48429802  0.27044907  0.43538386     0.11900
C796        C  0.46829003  0.34535112  0.42626572    -0.12500
H797        H  0.44864551  0.35410357  0.38493083     0.12200
C798        C  0.45941453  0.23695305  0.35974096    -0.23300
H799        H  0.47718109  0.22892519  0.40092051     0.07800
C800        C  0.46045679  0.25326643  0.44931238     0.04100
C801        C  0.47187679  0.24363324  0.46991709    -0.20500
C802        C  0.00651462  0.25076388  0.47680666    -0.12800
C803        C  0.02964672  0.26990680  0.46330993     0.12900
C804        C  0.01859901  0.27867347  0.44253514    -0.23300
C805        C  0.42301861  0.24529006  0.44246268    -0.06300
H806        H  0.45412342  0.22942351  0.48049170     0.14400
C807        C  0.06569417  0.28219091  0.47048168    -0.16500
H808        H  0.03651553  0.29274285  0.43198166     0.08700
H809        H  0.43942364  0.21669984  0.36411802     0.06600
H810        H  0.98603279  0.22414787  0.35885276     0.07800
H811        H  0.45329360  0.24689612  0.34344920     0.06800
H812        H  0.49589789  0.34732007  0.43228792     0.01700
H813        H  0.45044440  0.33849959  0.43977810     0.02200
H814        H  0.46044372  0.37174897  0.42009861     0.05700
H815        H  0.40773123  0.23235941  0.45548484     0.04700
H816        H  0.42315487  0.22727000  0.42840741    -0.01100
H817        H  0.40929011  0.27021686  0.43807433     0.00400
H818        H  0.08638538  0.26944124  0.46048913     0.04000
H819        H  0.07093078  0.27633141  0.48760850     0.06000
H820        H  0.06760479  0.31128339  0.46850383     0.06800
C821        C  0.43820488  0.81259889  0.35103209     0.79900
N822        N  0.45271066  0.84146038  0.34162643    -0.78400
C823        C  0.43922397  0.85418422  0.32300068     0.82300
N824        N  0.41076017  0.83834618  0.31387671    -0.78400
C825        C  0.39592020  0.80964145  0.32325740     0.82400
N826        N  0.40955558  0.79683811  0.34189763    -0.80100
C827        C  0.39183247  0.85446270  0.17496506     0.79900
N828        N  0.37372982  0.82924302  0.18597510    -0.78400
C829        C  0.38063730  0.82330889  0.20704367     0.82300
N830        N  0.40503192  0.84341105  0.21734249    -0.78400
C831        C  0.42414810  0.86782460  0.20644561     0.82400
N832        N  0.41718787  0.87367318  0.18530733    -0.80100
C833        C  0.16776781  0.85772380  0.36012810     0.79900
N834        N  0.18609344  0.83187752  0.34980081    -0.78400
C835        C  0.17886309  0.82428999  0.32891979     0.82300
N836        N  0.15389023  0.84324728  0.31828498    -0.78400
C837        C  0.13450163  0.86806414  0.32868509     0.82400
N838        N  0.14187574  0.87564771  0.34951952    -0.80100
C839        C  0.43352415  0.62294429  0.18211117     0.79900
N840        N  0.40565924  0.63907726  0.19184877    -0.78400
C841        C  0.39422427  0.62771574  0.21133668     0.82300
N842        N  0.41055028  0.60003305  0.22098344    -0.78400
C843        C  0.43856122  0.58410059  0.21143868     0.82400
N844        N  0.45007397  0.59566758  0.19207848    -0.80100
N845        N  0.98615810  0.92934330  0.22626270    -0.06400
N846        N  0.97708843  0.90676622  0.21097102    -0.58600
N847        N  0.46437202  0.51045503  0.24198639    -0.06100
N848        N  0.44260500  0.53735494  0.23925847    -0.60700
N849        N  0.98887849  0.51033720  0.22698868    -0.05700
N850        N  0.98405767  0.53688319  0.21358950    -0.58500
N851        N  0.46276665  0.92902731  0.24182849    -0.05400
N852        N  0.43771752  0.90569573  0.23770053    -0.61000
C853        C  0.44711363  0.89197662  0.21853037     0.95700
C854        C  0.45523158  0.55347581  0.22150557     0.95500
N855        N  0.98756750  0.50941523  0.30787362    -0.06600
N856        N  0.97917545  0.53246765  0.32298802    -0.59100
N857        N  0.46403124  0.92813076  0.29247693    -0.04700
N858        N  0.44212201  0.90137912  0.29533172    -0.60400
N859        N  0.98845246  0.92814735  0.30753532    -0.06700
N860        N  0.98378188  0.90165488  0.32093986    -0.59400
N861        N  0.46368001  0.50986688  0.29233490    -0.04400
N862        N  0.43910689  0.53370960  0.29636698    -0.60500
Mn863      Mn  0.46260234  0.96914828  0.26737832     1.18400
C864        C  0.44918218  0.54771768  0.31535001     0.97800
C865        C  0.45495308  0.88533949  0.31311129     0.98500
N866        N  0.07283502  0.50796152  0.22616007    -0.06700
N867        N  0.08214244  0.53058586  0.21099579    -0.63000
N868        N  0.09435114  0.92703388  0.24237195    -0.05500
N869        N  0.11693094  0.90096138  0.23915970    -0.63700
N870        N  0.07008729  0.92735678  0.22715310    -0.06200
N871        N  0.07577661  0.90171077  0.21320436    -0.63300
N872        N  0.09627623  0.50819878  0.24181207    -0.05100
N873        N  0.12149867  0.53136726  0.23789522    -0.63900
Mn874      Mn  0.02935864  0.96868492  0.22617729     1.10700
C875        C  0.11224687  0.54531063  0.21876975     0.99000
C876        C  0.10495768  0.88543003  0.22098252     0.99100
N877        N  0.07212975  0.92897532  0.30857629    -0.06200
N878        N  0.08118420  0.90653184  0.32391798    -0.61600
N879        N  0.09588652  0.50917896  0.29240729    -0.05500
N880        N  0.11903708  0.53475804  0.29583698    -0.58300
N881        N  0.07141677  0.50935064  0.30741923    -0.06800
N882        N  0.07742047  0.53479228  0.32141939    -0.61100
N883        N  0.09549217  0.92812985  0.29296511    -0.05800
N884        N  0.12042250  0.90470132  0.29709372    -0.58300
Mn885      Mn  0.02948291  0.96891003  0.30866768     1.20200
Mn886      Mn  0.09613615  0.96819723  0.26757682     1.10100
Cl887      Cl  0.02937276  0.96869415  0.26744782    -0.86300
C888        C  0.11104040  0.89121999  0.31629916     0.96000
C889        C  0.10707073  0.55043568  0.31395614     0.95800
C890        C  0.13192725  0.82019801  0.17987322     0.79900
N891        N  0.11373086  0.84625920  0.19005728    -0.78400
C892        C  0.12312665  0.85618487  0.21025786     0.82300
N893        N  0.15045943  0.83977370  0.22029687    -0.78400
C894        C  0.16806520  0.81317971  0.21039787     0.82400
N895        N  0.15880590  0.80347094  0.19019541    -0.80100
C896        C  0.39320435  0.58025025  0.35949839     0.79900
N897        N  0.37483798  0.60650595  0.34952359    -0.78400
C898        C  0.38191181  0.61471201  0.32871598     0.82300
N899        N  0.40666799  0.59596214  0.31781278    -0.78400
C900        C  0.42611301  0.57085454  0.32790806     0.82400
N901        N  0.41904483  0.56279968  0.34865946    -0.80100
C902        C  0.12785485  0.61940077  0.35398541     0.79900
N903        N  0.15508287  0.63658788  0.34425640    -0.78400
C904        C  0.16726202  0.62530613  0.32489179     0.82300
N905        N  0.15190285  0.59707608  0.31517092    -0.78400
C906        C  0.12431024  0.58030964  0.32461452     0.82400
N907        N  0.11242645  0.59148109  0.34399383    -0.80100
C908        C  0.16848971  0.58093136  0.17544380     0.79900
N909        N  0.14274692  0.56242885  0.18575597    -0.78400
C910        C  0.13570187  0.56890009  0.20676650     0.82300
N911        N  0.15508178  0.59331818  0.21758999    -0.78400
C912        C  0.17986911  0.61282864  0.20725746     0.82400
N913        N  0.18695975  0.60614085  0.18630352    -0.80100
N914        N  0.32115053  0.76005112  0.30833052    -0.06400
N915        N  0.34803142  0.76470816  0.32160102    -0.58600
N916        N  0.23963662  0.78545822  0.29354109    -0.06100
N917        N  0.21619718  0.81040622  0.29757200    -0.60700
N918        N  0.24019812  0.76206358  0.30914792    -0.05700
N919        N  0.21756427  0.77113313  0.32437960    -0.58500
N920        N  0.32114635  0.78437525  0.29323591    -0.05400
N921        N  0.34813086  0.80610096  0.29589891    -0.61000
C922        C  0.36458161  0.79344345  0.31359836     0.95700
C923        C  0.20244326  0.80102599  0.31671480     0.95500
N924        N  0.23869374  0.76003271  0.22786956    -0.06600
N925        N  0.21327527  0.76595760  0.21377386    -0.59100
N926        N  0.32001110  0.78525132  0.24270882    -0.04700
N927        N  0.34360829  0.81001680  0.23860949    -0.60400
N928        N  0.31934568  0.76172071  0.22717057    -0.06700
N929        N  0.34206591  0.77042298  0.21194420    -0.59400
N930        N  0.23861448  0.78445431  0.24293476    -0.04400
N931        N  0.21287430  0.80737819  0.23948709    -0.60500
Mn932      Mn  0.27982288  0.78581543  0.26812812     1.18400
C933        C  0.19735806  0.79540530  0.22130094     0.97800
C934        C  0.35734774  0.80027961  0.21951615     0.98500
N935        N  0.23907466  0.67810616  0.30850217    -0.06700
N936        N  0.21316874  0.67239135  0.32227442    -0.63000
N937        N  0.32070328  0.65339462  0.29352444    -0.05500
N938        N  0.34437066  0.62865068  0.29748623    -0.63700
N939        N  0.31997930  0.67664092  0.30921668    -0.06200
N940        N  0.34276939  0.66768280  0.32444816    -0.63300
N941        N  0.23921043  0.65370722  0.29342086    -0.05100
N942        N  0.21322377  0.63097724  0.29656958    -0.63900
Mn943      Mn  0.28003275  0.71925121  0.30945049     1.10700
C944        C  0.19724615  0.64300761  0.31456200     0.99000
C945        C  0.35809911  0.63798221  0.31667724     0.99100
N946        N  0.32096715  0.67838604  0.22775328    -0.06200
N947        N  0.34700360  0.67334107  0.21398658    -0.61600
N948        N  0.23991974  0.65257738  0.24284548    -0.05500
N949        N  0.21686942  0.62726103  0.23876883    -0.58300
N950        N  0.24010576  0.67599047  0.22725010    -0.06800
N951        N  0.21760854  0.66656442  0.21197089    -0.61100
N952        N  0.32148683  0.65411119  0.24287320    -0.05800
N953        N  0.34809154  0.63206446  0.23973374    -0.58300
Mn954      Mn  0.27967974  0.71902389  0.22691471     1.20200
Mn955      Mn  0.28035631  0.65257721  0.26817297     1.10100
Cl956      Cl  0.27989606  0.71916890  0.26816520    -0.86300
C957        C  0.36371409  0.64444971  0.22170407     0.96000
C958        C  0.20295340  0.63644075  0.21960490     0.95800
C959        C  0.26926849  0.95333559  0.49854651     0.02000
C960        C  0.29785420  0.97758141  0.49811946     0.01900
C961        C  0.31255717  0.98957205  0.51749575    -0.18600
C962        C  0.29979962  0.97777565  0.53732548     0.02000
C963        C  0.27032867  0.95464313  0.53785285     0.01900
C964        C  0.25629940  0.94175330  0.51847652    -0.18600
H965        H  0.23493354  0.92265729  0.51894923     0.04000
H966        H  0.33367436  0.51054535  0.51677503     0.04000
C967        C  0.04992274  0.72773201  0.03701903     0.02000
C968        C  0.02032189  0.70473606  0.03779482     0.01900
C969        C  0.50420566  0.69376204  0.01851018    -0.18600
C970        C  0.01666966  0.70561430  0.99859048     0.02000
C971        C  0.04493155  0.73017577  0.99787774     0.01900
C972        C  0.06170859  0.74013284  0.01707839    -0.18600
H973        H  0.08388143  0.75832316  0.01650353     0.04000
H974        H  0.48214022  0.67544623  0.01907834     0.04000
C975        C  0.01998037  0.73689236  0.49735231     0.02000
C976        C  0.04410573  0.70827756  0.49781173     0.01900
C977        C  0.05502031  0.69476857  0.51772020    -0.18600
C978        C  0.04313835  0.70978039  0.53706552     0.02000
C979        C  0.01839174  0.73790229  0.53646660     0.01900
C980        C  0.00697439  0.75095209  0.51657822    -0.18600
H981        H  0.48841929  0.77256512  0.51608004     0.04000
H982        H  0.07267143  0.67220879  0.51824264     0.04000
C983        C  0.26749197  0.98283180  0.03725215     0.02000
C984        C  0.29112591  0.95370975  0.03696075     0.01900
C985        C  0.30233694  0.94002885  0.01711714    -0.18600
C986        C  0.28987501  0.95408812  0.99769472     0.02000
C987        C  0.26710906  0.98373592  0.99802249     0.01900
C988        C  0.25548924  0.99714877  0.01774074    -0.18600
H989        H  0.23582071  0.51931940  0.01816723     0.04000
H990        H  0.32098379  0.91826384  0.01675194     0.04000
C991        C  0.37147832  0.87684782  0.85122668     0.79900
N992        N  0.39970756  0.89286645  0.84187621    -0.78400
C993        C  0.41282746  0.88042988  0.82302752     0.82300
N994        N  0.39779934  0.85181965  0.81356691    -0.78400
C995        C  0.36962230  0.83578149  0.82282123     0.82400
N996        N  0.35672770  0.84815871  0.84167637    -0.80100
C997        C  0.41615361  0.60930498  0.86039872     0.79900
N998        N  0.39018478  0.62715923  0.84982887    -0.78400
C999        C  0.38279746  0.61945482  0.82899410     0.82300
N1000       N  0.40203033  0.59446938  0.81864013    -0.78400
C1001       C  0.42684301  0.57539353  0.82930577     0.82400
N1002       N  0.43413195  0.58309951  0.85014213    -0.80100
C1003       C  0.18166962  0.56980102  0.85400766     0.79900
N1004       N  0.15334292  0.55379647  0.84466585    -0.78400
C1005       C  0.14095764  0.56532787  0.82542444     0.82300
N1006       N  0.15671541  0.59316340  0.81560029    -0.78400
C1007       C  0.18492498  0.60929341  0.82488298     0.82400
N1008       N  0.19721509  0.59769834  0.84411062    -0.80100
C1009       C  0.14348826  0.83468318  0.86121647     0.79900
N1010       N  0.12486804  0.86009780  0.85059273    -0.78400
C1011       C  0.13091846  0.86647399  0.82948008     0.82300
N1012       N  0.15509308  0.84674115  0.81878991    -0.78400
C1013       C  0.17469744  0.82218499  0.82928893     0.82400
N1014       N  0.16842396  0.81573098  0.85040810    -0.80100
C1015       C  0.13473159  0.61260002  0.67702762     0.79900
N1016       N  0.16145221  0.63043349  0.68695257    -0.78400
C1017       C  0.17085163  0.62211776  0.70738681     0.82300
N1018       N  0.15273239  0.59668054  0.71805959    -0.78400
C1019       C  0.12711856  0.57777217  0.70797342     0.82400
N1020       N  0.11788428  0.58602113  0.68751176    -0.80100
C1021       C  0.37877895  0.56940022  0.68097858     0.79900
N1022       N  0.36133084  0.59627306  0.69087017    -0.78400
C1023       C  0.37111834  0.60668892  0.71090545     0.82300
N1024       N  0.39827849  0.59013183  0.72103471    -0.78400
C1025       C  0.41517877  0.56278176  0.71144391     0.82400
N1026       N  0.40531392  0.55240124  0.69147813    -0.80100
N1027       N  0.32264184  0.75960383  0.72666342    -0.06400
N1028       N  0.33235684  0.78187660  0.71139885    -0.58600
N1029       N  0.34350823  0.67854254  0.74256433    -0.06100
N1030       N  0.36579003  0.65219611  0.73943491    -0.60700
N1031       N  0.31918680  0.67899127  0.72737811    -0.05700
N1032       N  0.32455863  0.65313398  0.71352070    -0.58500
N1033       N  0.34607528  0.75967769  0.74231606    -0.05400
N1034       N  0.37169436  0.78238652  0.73830285    -0.61000
C1035       C  0.36270466  0.79622348  0.71910657     0.95700
C1036       C  0.35359164  0.63661000  0.72133612     0.95500
N1037       N  0.32106495  0.68069901  0.80871610    -0.06600
N1038       N  0.32983691  0.65819555  0.82407191    -0.59100
N1039       N  0.34469713  0.76109114  0.79273409    -0.04700
N1040       N  0.36657389  0.78798218  0.79538011    -0.60400
N1041       N  0.32019006  0.76132214  0.80772845    -0.06700
N1042       N  0.32486065  0.78815273  0.82091461    -0.59400
N1043       N  0.34449822  0.67968579  0.79314580    -0.04400
N1044       N  0.36920735  0.65605245  0.79732701    -0.60500
Mn1045     Mn  0.34560163  0.71969792  0.76771599     1.18400
C1046       C  0.35959042  0.64266152  0.81651733     0.97800
C1047       C  0.35377230  0.80450680  0.81299555     0.98500
N1048       N  0.23496702  0.68196635  0.72676382    -0.06700
N1049       N  0.22512978  0.65956151  0.71154795    -0.63000
N1050       N  0.21425611  0.76302326  0.74276845    -0.05500
N1051       N  0.19250123  0.78990402  0.73994376    -0.63700
N1052       N  0.23856086  0.76258605  0.72763817    -0.06200
N1053       N  0.23376263  0.78903070  0.71415184    -0.63300
N1054       N  0.21173532  0.68190803  0.74247331    -0.05100
N1055       N  0.18619172  0.65906722  0.73855617    -0.63900
Mn1056     Mn  0.27879964  0.72077557  0.72643036     1.10700
C1057       C  0.19497459  0.64513205  0.71937698     0.99000
C1058       C  0.20506352  0.80582786  0.72210495     0.99100
N1059       N  0.23659203  0.76114096  0.80886123    -0.06200
N1060       N  0.22771301  0.78339985  0.82432830    -0.61600
N1061       N  0.21272596  0.68084720  0.79303145    -0.05500
N1062       N  0.18981646  0.65504541  0.79630597    -0.58300
N1063       N  0.23731035  0.68067046  0.80804510    -0.06800
N1064       N  0.23164815  0.65497199  0.82188441    -0.61100
N1065       N  0.21303910  0.76208092  0.79329693    -0.05800
N1066       N  0.18811298  0.78541822  0.79759350    -0.58300
Mn1067     Mn  0.27885788  0.72093615  0.80893082     1.20200
Mn1068     Mn  0.21206474  0.72196945  0.76785702     1.10100
Cl1069     Cl  0.27882694  0.72080649  0.76770088    -0.86300
C1070       C  0.19770512  0.79867549  0.81686669     0.96000
C1071       C  0.20206421  0.63921241  0.81432260     0.95800
C1072       C  0.41851280  0.83120165  0.67532286     0.79900
N1073       N  0.43690481  0.85692977  0.68583296    -0.78400
C1074       C  0.43031259  0.86365775  0.70690111     0.82300
N1075       N  0.40584753  0.84407285  0.71749295    -0.78400
C1076       C  0.38648585  0.81932819  0.70695719     0.82400
N1077       N  0.39334386  0.81247808  0.68599307    -0.80100
C1078       C  0.18344591  0.87564005  0.68284497     0.79900
N1079       N  0.15595682  0.89206324  0.69278957    -0.78400
C1080       C  0.14448483  0.88049255  0.71221224     0.82300
N1081       N  0.16060459  0.85254317  0.72169000    -0.78400
C1082       C  0.18844126  0.83649530  0.71203324     0.82400
N1083       N  0.19985719  0.84809555  0.69264610    -0.80100
N1084       N  0.48782654  0.92987575  0.80858790    -0.06400
N1085       N  0.46070022  0.92533048  0.82160185    -0.58600
N1086       N  0.06969190  0.90489397  0.79409021    -0.06100
N1087       N  0.09337666  0.88015851  0.79810788    -0.60700
N1088       N  0.06889406  0.92818314  0.80976246    -0.05700
N1089       N  0.09163860  0.91925616  0.82502211    -0.58500
N1090       N  0.48802753  0.90552153  0.79347452    -0.05400
N1091       N  0.46088064  0.88391892  0.79588217    -0.61000
C1092       C  0.44416116  0.89666625  0.81344139     0.95700
C1093       C  0.10704054  0.88954822  0.81731001     0.95500
N1094       N  0.07084060  0.93065457  0.72845843    -0.06600
N1095       N  0.09714624  0.92593584  0.71484538    -0.59100
N1096       N  0.48964723  0.90389552  0.74289200    -0.04700
N1097       N  0.46705950  0.87828821  0.73853716    -0.60400
N1098       N  0.48990060  0.92736378  0.72733569    -0.06700
N1099       N  0.46792480  0.91770538  0.71180820    -0.59400
N1100       N  0.07125144  0.90619051  0.74347359    -0.04400
N1101       N  0.09804629  0.88434952  0.74042202    -0.60500
Mn1102     Mn  0.02970702  0.90420801  0.76848478     1.18400
C1103       C  0.11391324  0.89707541  0.72256242     0.97800
C1104       C  0.45352651  0.88730923  0.71923323     0.98500
N1105       N  0.06903721  0.51254203  0.80922217    -0.06700
N1106       N  0.09496744  0.51845348  0.82300325    -0.63000
N1107       N  0.48776528  0.53678899  0.79399091    -0.05500
N1108       N  0.46410114  0.56153283  0.79797105    -0.63700
N1109       N  0.48860154  0.51351336  0.80964625    -0.06200
N1110       N  0.46589224  0.52244952  0.82486922    -0.63300
N1111       N  0.06869163  0.53689881  0.79414010    -0.05100
N1112       N  0.09453664  0.55981237  0.79728076    -0.63900
Mn1113     Mn  0.02887992  0.97080452  0.81001766     1.10700
C1114       C  0.11063313  0.54792429  0.81528837     0.99000
C1115       C  0.45044996  0.55213551  0.81713074     0.99100
N1116       N  0.48746872  0.51131074  0.72834586    -0.06200
N1117       N  0.46156480  0.51656241  0.71446879    -0.61600
N1118       N  0.06797766  0.53765845  0.74361031    -0.05500
N1119       N  0.09095826  0.56301271  0.73958127    -0.58300
N1120       N  0.06781421  0.51425387  0.72799765    -0.06800
N1121       N  0.09025482  0.52367824  0.71277335    -0.61100
N1122       N  0.48699357  0.53563448  0.74346545    -0.05800
N1123       N  0.46054826  0.55783724  0.74025761    -0.58300
Mn1124     Mn  0.02911968  0.97089339  0.72749253     1.20200
Mn1125     Mn  0.02762195  0.53752454  0.76885189     1.10100
Cl1126     Cl  0.02897148  0.97081093  0.76874491    -0.86300
C1127       C  0.44496265  0.54551278  0.72218328     0.96000
C1128       C  0.10488227  0.55378756  0.72045582     0.95800
C1129       C  0.21192603  0.51335044  0.90111399    -0.22800
C1130       C  0.21635510  0.53918501  0.91699882     0.09200
C1131       C  0.21027397  0.57499802  0.91202625     0.09600
C1132       C  0.19943489  0.58414564  0.89120117    -0.17700
C1133       C  0.19451101  0.55826698  0.87528339    -0.28100
C1134       C  0.20147123  0.52239130  0.88022089     0.17900
C1135       C  0.22801819  0.52789993  0.93860929     0.11900
C1136       C  0.21466917  0.60338311  0.92877576    -0.12500
H1137       H  0.19419322  0.61160881  0.88741043     0.12200
C1138       C  0.19973609  0.49308683  0.86383643    -0.23300
H1139       H  0.21725282  0.48592060  0.90499033     0.07800
C1140       C  0.20670501  0.01031577  0.95230865     0.04100
C1141       C  0.21906182  0.99810494  0.97222704    -0.20500
C1142       C  0.25495613  0.00086878  0.97786584    -0.12800
C1143       C  0.27654703  0.51925275  0.96396301     0.12900
C1144       C  0.26379257  0.53146328  0.94417122    -0.23300
C1145       C  0.16799007  0.00700488  0.94681145    -0.06300
H1146       H  0.20087450  0.98534843  0.98320277     0.14400
C1147       C  0.31470053  0.52671467  0.96946514    -0.16500
H1148       H  0.28186274  0.54394423  0.93299611     0.08700
H1149       H  0.17868997  0.47403570  0.86838160     0.06600
H1150       H  0.22552697  0.47898692  0.86344797     0.07800
H1151       H  0.19454109  0.50251117  0.84732635     0.06800
H1152       H  0.24247104  0.60383173  0.93459463     0.01700
H1153       H  0.19673554  0.59805281  0.94249597     0.02200
H1154       H  0.20826272  0.62996830  0.92229918     0.05700
H1155       H  0.15268182  0.99503412  0.96015884     0.04700
H1156       H  0.16462251  0.99004509  0.93241845    -0.01100
H1157       H  0.15680957  0.03358726  0.94347862     0.00400
H1158       H  0.33224365  0.51400066  0.95745122     0.04000
H1159       H  0.32220764  0.51729775  0.98568277     0.06000
H1160       H  0.31934746  0.55567281  0.96905137     0.06800
C1161       C  0.28911278  0.91111441  0.94244224    -0.22800
C1162       C  0.32415249  0.91693250  0.93597110     0.09200
C1163       C  0.34851839  0.93214772  0.95048706     0.09600
C1164       C  0.33697224  0.94225016  0.97097727    -0.17700
C1165       C  0.30150380  0.93808333  0.97711076    -0.28100
C1166       C  0.27757140  0.92101542  0.96296426     0.17900
C1167       C  0.33504811  0.90633148  0.91406246     0.11900
C1168       C  0.38664431  0.93783420  0.94432153    -0.12500
H1169       H  0.35535668  0.95479996  0.98197817     0.12200
C1170       C  0.24003683  0.91216525  0.96912465    -0.23300
H1171       H  0.27067062  0.89869476  0.93140866     0.07800
C1172       C  0.34115091  0.87061264  0.90879908     0.01300
C1173       C  0.35267552  0.86193921  0.88808639    -0.20500
C1174       C  0.35872524  0.88816223  0.87258074    -0.12800
C1175       C  0.35216734  0.92396281  0.87778347     0.12900
C1176       C  0.34017932  0.93256344  0.89847793    -0.23300
C1177       C  0.33625451  0.84173670  0.92516163    -0.06300
H1178       H  0.35768077  0.83450854  0.88408962     0.14400
C1179       C  0.35674966  0.95300799  0.86149158    -0.16500
H1180       H  0.33506142  0.95990790  0.90263788     0.08700
H1181       H  0.23596153  0.88318649  0.96781607     0.06600
H1182       H  0.22134553  0.92560910  0.95803710     0.07800
H1183       H  0.23356432  0.91999221  0.98580338     0.06800
H1184       H  0.38822324  0.95621594  0.93048824     0.01700
H1185       H  0.39887645  0.91219129  0.93985682     0.02200
H1186       H  0.40225288  0.94939941  0.95772235     0.05700
H1187       H  0.34306427  0.81536145  0.91852007     0.04700
H1188       H  0.30823781  0.84092036  0.93047797    -0.01100
H1189       H  0.35362134  0.84676066  0.93924082     0.00400
H1190       H  0.34850678  0.97907348  0.86798826     0.04000
H1191       H  0.34031247  0.94733612  0.84709549     0.06000
H1192       H  0.38497683  0.95514200  0.85676872     0.06800
C1193       C  0.10337318  0.68123068  0.58302415    -0.22800
C1194       C  0.07911961  0.66460755  0.59665109     0.09200
C1195       C  0.04298948  0.66326468  0.59090563     0.09600
C1196       C  0.03200680  0.67815296  0.57135871    -0.17700
C1197       C  0.05625108  0.69492443  0.55766010    -0.28100
C1198       C  0.09244871  0.69665204  0.56366275     0.17900
C1199       C  0.09218595  0.65012394  0.61726241     0.11900
C1200       C  0.01613001  0.64618315  0.60540733    -0.12500
H1201       H  0.00437285  0.67669329  0.56670172     0.12200
C1202       C  0.12016950  0.71533813  0.55047289    -0.23300
H1203       H  0.13101775  0.68262408  0.58770891     0.07800
C1204       C  0.10639872  0.61572528  0.61880581     0.04100
C1205       C  0.12003384  0.60396249  0.63856574    -0.20500
C1206       C  0.11988544  0.62598895  0.65668064    -0.12800
C1207       C  0.10438225  0.66003708  0.65524218     0.12900
C1208       C  0.09122051  0.67179401  0.63544822    -0.23300
C1209       C  0.10721300  0.59160437  0.59959119    -0.06300
H1210       H  0.13121299  0.57766328  0.63984111     0.14400
C1211       C  0.10001832  0.68428562  0.67428699    -0.16500
H1212       H  0.07979570  0.69801686  0.63421113     0.08700
H1213       H  0.14065835  0.69609355  0.54533607     0.06600
H1214       H  0.13298299  0.73616187  0.56037001     0.07800
H1215       H  0.10932343  0.72835431  0.53598146     0.06800
H1216       H  0.01571333  0.66001405  0.62112097     0.01700
H1217       H  0.02312270  0.61801331  0.60798249     0.02200
H1218       H  0.98902995  0.64733453  0.59846486     0.05700
H1219       H  0.11905291  0.56554251  0.60355973     0.04700
H1220       H  0.12320740  0.60379629  0.58663268    -0.01100
H1221       H  0.07984640  0.58710185  0.59363755     0.00400
H1222       H  0.11528159  0.70895353  0.67159295     0.04000
H1223       H  0.10881234  0.67243692  0.68963173     0.06000
H1224       H  0.07158125  0.69114020  0.67614068     0.06800
C1225       C  0.44539532  0.82731593  0.61643902    -0.22800
C1226       C  0.45733333  0.79227387  0.61491003     0.09200
C1227       C  0.45603547  0.77017257  0.63311414     0.09600
C1228       C  0.44221042  0.78347020  0.65238646    -0.17700
C1229       C  0.43064615  0.81864901  0.65407517    -0.28100
C1230       C  0.43225651  0.84087444  0.63590266     0.17900
C1231       C  0.47221951  0.77944513  0.59432347     0.11900
C1232       C  0.47017195  0.73291028  0.63235421    -0.12500
H1233       H  0.44138221  0.76660042  0.66643668     0.12200
C1234       C  0.41948767  0.87852795  0.63691301    -0.23300
H1235       H  0.44662790  0.84413070  0.60238345     0.07800
C1236       C  0.45146772  0.76039158  0.57942933     0.04100
C1237       C  0.46735794  0.74724799  0.56069217    -0.20500
C1238       C  0.00317148  0.75353018  0.55630249    -0.12800
C1239       C  0.02342941  0.77426700  0.57071505     0.12900
C1240       C  0.00774140  0.78660548  0.58969741    -0.23300
C1241       C  0.41253306  0.75434836  0.58318942    -0.06300
H1242       H  0.45171838  0.73199109  0.54940046     0.14400
C1243       C  0.06118615  0.78476564  0.56632113    -0.16500
H1244       H  0.02340227  0.80185816  0.60098644     0.08700
H1245       H  0.42159487  0.89185557  0.62108810     0.06600
H1246       H  0.43563267  0.89369994  0.64862359     0.07800
H1247       H  0.39128400  0.87909818  0.64191894     0.06800
H1248       H  0.49866620  0.73331562  0.62798274     0.01700
H1249       H  0.45547046  0.71715468  0.62025294     0.02200
H1250       H  0.46758984  0.71942084  0.64809856     0.05700
H1251       H  0.40017062  0.73927774  0.56983068     0.04700
H1252       H  0.39876384  0.78017600  0.58451650    -0.01100
H1253       H  0.40847360  0.73924083  0.59822611     0.00400
H1254       H  0.06344437  0.81401364  0.56665321     0.04000
H1255       H  0.07059334  0.77580496  0.55040901     0.06000
H1256       H  0.07875650  0.77352926  0.57889107     0.06800
C1257       C  0.07260277  0.79747955  0.95571747    -0.22800
C1258       C  0.08850484  0.77575384  0.94029108     0.09200
C1259       C  0.08887506  0.73878827  0.94340843     0.09600
C1260       C  0.07372160  0.72445890  0.96207630    -0.17700
C1261       C  0.05773010  0.74621632  0.97753351    -0.28100
C1262       C  0.05674878  0.78324737  0.97411110     0.17900
C1263       C  0.10278160  0.79226412  0.92046782     0.11900
C1264       C  0.10487491  0.71448147  0.92693081    -0.12500
H1265       H  0.07477633  0.69619693  0.96477703     0.12200
C1266       C  0.03857919  0.80858583  0.98920691    -0.23300
H1267       H  0.07198544  0.82581597  0.95316902     0.07800
C1268       C  0.07987615  0.80521683  0.90439511     0.04100
C1269       C  0.09422372  0.82024290  0.88577701    -0.20500
C1270       C  0.13104244  0.82261399  0.88263026    -0.12800
C1271       C  0.15404464  0.81050907  0.89909314     0.12900
C1272       C  0.13955272  0.79526934  0.91772264    -0.23300
C1273       C  0.04022134  0.80215181  0.90655184    -0.06300
H1274       H  0.07640339  0.82907190  0.87321784     0.14400
C1275       C  0.19375686  0.81411276  0.89797635    -0.16500
H1276       H  0.15707504  0.78587017  0.93029348     0.08700
H1277       H  0.01814584  0.82372816  0.98025237     0.06600
H1278       H  0.05832252  0.82735691  0.99589944     0.07800
H1279       H  0.02503104  0.79534142  0.00273208     0.06800
H1280       H  0.13346600  0.72047157  0.92501551     0.01700
H1281       H  0.09121349  0.71809474  0.91128571     0.02200
H1282       H  0.10232081  0.68630591  0.93165980     0.05700
H1283       H  0.02622467  0.81243834  0.89215848     0.04700
H1284       H  0.03101479  0.81754724  0.92063187    -0.01100
H1285       H  0.03271275  0.77399568  0.90864231     0.00400
H1286       H  0.20342164  0.82848720  0.91239033     0.04000
H1287       H  0.20285678  0.82921296  0.88381960     0.06000
H1288       H  0.20607128  0.78747642  0.89765320     0.06800
C1289       C  0.45953684  0.69737651  0.94803563    -0.22800
C1290       C  0.46742102  0.66263652  0.94180981     0.09200
C1291       C  0.49076976  0.64219924  0.95444563     0.09600
C1292       C  0.00624507  0.65667772  0.97298844    -0.17700
C1293       C  0.49885652  0.69215284  0.97887342    -0.28100
C1294       C  0.47462350  0.71228269  0.96657928     0.17900
C1295       C  0.45316582  0.64901602  0.92118279     0.11900
C1296       C  0.99879270  0.60387803  0.94887975    -0.12500
H1297       H  0.02411578  0.64101839  0.98275073     0.12200
C1298       C  0.46366414  0.74918072  0.97271784    -0.23300
H1299       H  0.44161481  0.71301882  0.93829542     0.07800
C1300       C  0.41769835  0.63776736  0.91876506     0.04100
C1301       C  0.40617060  0.62474982  0.89874908    -0.20500
C1302       C  0.42933717  0.62293405  0.88117538    -0.12800
C1303       C  0.46448803  0.63562590  0.88350068     0.12900
C1304       C  0.47599630  0.64785774  0.90354865    -0.23300
C1305       C  0.39226698  0.63913816  0.93732001    -0.06300
H1306       H  0.37908937  0.61576127  0.89682681     0.14400
C1307       C  0.49029293  0.63842832  0.86511138    -0.16500
H1308       H  0.50295937  0.65732148  0.90536051     0.08700
H1309       H  0.43444165  0.75020639  0.97459701     0.06600
H1310       H  0.47165293  0.76790975  0.95990373     0.07800
H1311       H  0.47557724  0.75806112  0.98804917     0.06800
H1312       H  0.01189053  0.60262880  0.93297328     0.01700
H1313       H  0.47441859  0.58878819  0.94798379     0.02200
H1314       H  0.01669399  0.59132829  0.96081540     0.05700
H1315       H  0.36571962  0.62886050  0.93279389     0.04700
H1316       H  0.38905543  0.66685288  0.94281596    -0.01100
H1317       H  0.40260416  0.62288636  0.95077360     0.00400
H1318       H  0.49993033  0.66608342  0.86389103     0.04000
H1319       H  0.47868102  0.63166464  0.84932693     0.06000
H1320       H  0.01308534  0.62120220  0.86791334     0.06800
C1321       C  0.34137534  0.98219940  0.59297614    -0.22800
C1322       C  0.33806796  0.52114697  0.59664357     0.09200
C1323       C  0.32691673  0.54450583  0.58036526     0.09600
C1324       C  0.31553504  0.53068514  0.56064910    -0.17700
C1325       C  0.31665546  0.99120175  0.55732474    -0.28100
C1326       C  0.33179337  0.96844840  0.57289258     0.17900
C1327       C  0.34799613  0.53410963  0.61817888     0.11900
C1328       C  0.32691922  0.58390367  0.58384608    -0.12500
H1329       H  0.30538079  0.54838085  0.54842680     0.12200
C1330       C  0.33918650  0.92994871  0.56868589    -0.23300
H1331       H  0.35178664  0.96468240  0.60522679     0.07800
C1332       C  0.32230031  0.53998669  0.63418464     0.04100
C1333       C  0.33309673  0.55238729  0.65439715    -0.20500
C1334       C  0.36899395  0.55864066  0.65896644    -0.12800
C1335       C  0.39463418  0.55326710  0.64267192     0.12900
C1336       C  0.38374883  0.54055117  0.62258831    -0.23300
C1337       C  0.28365743  0.53253225  0.63004228    -0.06300
H1338       H  0.31352492  0.55644909  0.66685664     0.14400
C1339       C  0.43340101  0.56190773  0.64540026    -0.16500
H1340       H  0.40323848  0.53624846  0.61009837     0.08700
H1341       H  0.32441931  0.91343520  0.58034980     0.06600
H1342       H  0.36794325  0.92481554  0.57077302     0.07800
H1343       H  0.33192146  0.92168876  0.55218548     0.06800
H1344       H  0.35421015  0.59294957  0.58760901     0.01700
H1345       H  0.30922653  0.59092749  0.59737317     0.02200
H1346       H  0.31762355  0.59832383  0.56937222     0.05700
H1347       H  0.26720512  0.53786362  0.64443675     0.04700
H1348       H  0.27980388  0.00047556  0.62610667    -0.01100
H1349       H  0.27374056  0.54937988  0.61677666     0.00400
H1350       H  0.44926003  0.53725464  0.64441835     0.04000
H1351       H  0.43957414  0.57547248  0.66068450     0.06000
H1352       H  0.44187542  0.57997487  0.63234184     0.06800
C1353       C  0.18419053  0.90166918  0.62389755    -0.22800
C1354       C  0.22025623  0.90840335  0.62078258     0.09200
C1355       C  0.24422225  0.90435423  0.63800733     0.09600
C1356       C  0.23135111  0.89365567  0.65811112    -0.17700
C1357       C  0.19513573  0.88693770  0.66131325    -0.28100
C1358       C  0.17132189  0.89033501  0.64381932     0.17900
C1359       C  0.23211667  0.91963212  0.59924533     0.11900
C1360       C  0.28322675  0.91145974  0.63519223    -0.12500
H1361       H  0.24959627  0.89072472  0.67144966     0.12200
C1362       C  0.13263135  0.88061814  0.64506735    -0.23300
H1363       H  0.16605159  0.90443745  0.61048451     0.07800
C1364       C  0.24385876  0.89496753  0.58384967     0.04100
C1365       C  0.25506248  0.90704119  0.56368335    -0.20500
C1366       C  0.25424763  0.94314145  0.55849488    -0.12800
C1367       C  0.23957392  0.96737717  0.57339642     0.12900
C1368       C  0.22958836  0.95539834  0.59378161    -0.23300
C1369       C  0.24431113  0.85597045  0.58866285    -0.06300
H1370       H  0.26542949  0.88836023  0.55210031     0.14400
C1371       C  0.23269312  0.00561688  0.56813693    -0.16500
H1372       H  0.21912176  0.97400374  0.60539416     0.08700
H1373       H  0.12642237  0.86080729  0.63244813     0.06600
H1374       H  0.11618948  0.90450107  0.64227385     0.07800
H1375       H  0.12491776  0.86870553  0.66056834     0.06800
H1376       H  0.28732944  0.93911875  0.62993612     0.01700
H1377       H  0.29441860  0.89347245  0.62289625     0.02200
H1378       H  0.29816806  0.90740632  0.65036845     0.05700
H1379       H  0.25399588  0.84034205  0.57477244     0.04700
H1380       H  0.21709182  0.84690893  0.59252231    -0.01100
H1381       H  0.26190967  0.85049935  0.60253943     0.00400
H1382       H  0.20387248  0.51663578  0.57065410     0.04000
H1383       H  0.23991023  0.01253969  0.55143654     0.06000
H1384       H  0.24774908  0.02278395  0.57936009     0.06800
C1385       C  0.17315720  0.54872246  0.11753412    -0.22800
C1386       C  0.20935670  0.54076596  0.11589077     0.09200
C1387       C  0.23196550  0.54696086  0.13352883     0.09600
C1388       C  0.21787635  0.56118335  0.15244942    -0.17700
C1389       C  0.18155190  0.56863995  0.15434364    -0.28100
C1390       C  0.15885799  0.56230853  0.13667136     0.17900
C1391       C  0.22324382  0.52565304  0.09565540     0.11900
C1392       C  0.27174363  0.03763132  0.13257922    -0.12500
H1393       H  0.23518412  0.56550353  0.16610855     0.12200
C1394       C  0.11985376  0.57049805  0.13777613    -0.23300
H1395       H  0.15604340  0.54394875  0.10384546     0.07800
C1396       C  0.21942403  0.48945833  0.09076263     0.04100
C1397       C  0.23388967  0.47621083  0.07166484    -0.20500
C1398       C  0.25302784  0.49810061  0.05767372    -0.12800
C1399       C  0.25857597  0.03411954  0.06312269     0.12900
C1400       C  0.24214665  0.54763229  0.08169807    -0.23300
C1401       C  0.20058987  0.46476247  0.10585418    -0.06300
H1402       H  0.23020716  0.44861446  0.06759082     0.14400
C1403       C  0.28088265  0.05916968  0.05006104    -0.16500
H1404       H  0.24643208  0.07495402  0.08606921     0.08700
H1405       H  0.10642039  0.56550028  0.12218795     0.06600
H1406       H  0.11596559  0.59874016  0.14199579     0.07800
H1407       H  0.10695945  0.55362548  0.15003446     0.06800
H1408       H  0.28463365  0.05346233  0.11980963     0.01700
H1409       H  0.27513619  0.00909069  0.12895636     0.02200
H1410       H  0.28552767  0.04335977  0.14795738     0.05700
H1411       H  0.20052929  0.43717547  0.09975585     0.04700
H1412       H  0.17268096  0.47331135  0.10788151    -0.01100
H1413       H  0.21405987  0.46493121  0.12171533     0.00400
H1414       H  0.26392577  0.08064709  0.04358005     0.04000
H1415       H  0.29469949  0.04616541  0.03653988     0.06000
H1416       H  0.30162078  0.07100449  0.06048971     0.06800
C1417       C  0.10241560  0.68136641  0.45061988    -0.22800
C1418       C  0.07699137  0.66827708  0.43625807     0.09200
C1419       C  0.04129334  0.66598176  0.44266442     0.09600
C1420       C  0.03174172  0.67732223  0.46329843    -0.17700
C1421       C  0.05688130  0.69178034  0.47749490    -0.28100
C1422       C  0.09289919  0.69301473  0.47123228     0.17900
C1423       C  0.08876924  0.65607427  0.41483960     0.11900
C1424       C  0.01326597  0.65212883  0.42761498    -0.12500
H1425       H  0.00430493  0.67570736  0.46823847     0.12200
C1426       C  0.12139356  0.70694471  0.48596941    -0.23300
H1427       H  0.12985712  0.68250674  0.44560319     0.07800
C1428       C  0.09252725  0.67966618  0.39746702     0.04100
C1429       C  0.10577651  0.66707086  0.37783885    -0.20500
C1430       C  0.11461614  0.63130859  0.37512020    -0.12800
C1431       C  0.11046488  0.60764840  0.39253887     0.12900
C1432       C  0.09771040  0.62042902  0.41221601    -0.23300
C1433       C  0.08237800  0.71800040  0.39966306    -0.06300
H1434       H  0.10877583  0.68509395  0.36444940     0.14400
C1435       C  0.12066419  0.56923906  0.39077041    -0.16500
H1436       H  0.09492625  0.60261734  0.42572904     0.08700
H1437       H  0.14758586  0.70779600  0.47790690     0.06600
H1438       H  0.12405114  0.68954283  0.50017728     0.07800
H1439       H  0.11497068  0.73408206  0.49134910     0.06800
H1440       H  0.01950507  0.62447957  0.42303107     0.01700
H1441       H  0.01226565  0.66872156  0.41294190     0.02200
H1442       H  0.98659128  0.65249990  0.43510033     0.05700
H1443       H  0.08676562  0.73279205  0.38450797     0.04700
H1444       H  0.09848303  0.73060851  0.41247497    -0.01100
H1445       H  0.05390479  0.72017163  0.40388905     0.00400
H1446       H  0.11758730  0.55520071  0.40630814     0.04000
H1447       H  0.14879929  0.56698697  0.38580153     0.06000
H1448       H  0.10351188  0.55571455  0.37885470     0.06800
C1449       C  0.35985068  0.50376938  0.45202961    -0.22800
C1450       C  0.33817241  0.52540444  0.43933783     0.09200
C1451       C  0.30225382  0.03020288  0.44649520     0.09600
C1452       C  0.28982291  0.01425917  0.46537486    -0.17700
C1453       C  0.31183892  0.99237419  0.47775596    -0.28100
C1454       C  0.34691011  0.48790961  0.47081943     0.17900
C1455       C  0.35285576  0.54024291  0.41922506     0.11900
C1456       C  0.27768101  0.05295690  0.43337729    -0.12500
H1457       H  0.26289315  0.01904428  0.47060664     0.12200
C1458       C  0.37067282  0.46330276  0.48328887    -0.23300
H1459       H  0.38692597  0.49902731  0.44705306     0.07800
C1460       C  0.36611483  0.57510144  0.41799283     0.04100
C1461       C  0.37909397  0.58780733  0.39828814    -0.20500
C1462       C  0.38032604  0.56590389  0.38012900    -0.12800
C1463       C  0.36768570  0.53072085  0.38159239     0.12900
C1464       C  0.35392726  0.51847323  0.40109652    -0.23300
C1465       C  0.36728644  0.59849911  0.43754186    -0.06300
H1466       H  0.38881940  0.61468143  0.39711647     0.14400
C1467       C  0.36759204  0.50620356  0.36249183    -0.16500
H1468       H  0.33597581  0.99374541  0.40183102     0.08700
H1469       H  0.37591159  0.47398352  0.49954757     0.06600
H1470       H  0.39665434  0.45967297  0.47525723     0.07800
H1471       H  0.35795211  0.43697150  0.48470646     0.06800
H1472       H  0.27482564  0.04167701  0.41701349     0.01700
H1473       H  0.28713409  0.57868389  0.42904716     0.02200
H1474       H  0.25091589  0.05462267  0.44067269     0.05700
H1475       H  0.37888209  0.62477133  0.43385341     0.04700
H1476       H  0.38378856  0.58587204  0.45015874    -0.01100
H1477       H  0.34019439  0.60267546  0.44388354     0.00400
H1478       H  0.39515166  0.50064034  0.35736140     0.04000
H1479       H  0.35266432  0.51840751  0.34903107     0.06000
H1480       H  0.34285937  0.98463540  0.36514270     0.06800
C1481       C  0.13653312  0.79545284  0.12081579    -0.22800
C1482       C  0.10191580  0.78345014  0.11731133     0.09200
C1483       C  0.07693755  0.78489625  0.13408960     0.09600
C1484       C  0.08732826  0.79791485  0.15422025    -0.17700
C1485       C  0.12212380  0.80940442  0.15791459    -0.28100
C1486       C  0.14694260  0.80879242  0.14088001     0.17900
C1487       C  0.09199417  0.76986493  0.09587303     0.11900
C1488       C  0.03936796  0.77263736  0.13070962    -0.12500
H1489       H  0.06839835  0.79850239  0.16726929     0.12200
C1490       C  0.18413093  0.82297403  0.14300112    -0.23300
H1491       H  0.15540797  0.79478801  0.10773145     0.07800
C1492       C  0.07847799  0.79250293  0.07989472     0.04100
C1493       C  0.06630998  0.77803138  0.06052215    -0.20500
C1494       C  0.06735865  0.74141858  0.05678826    -0.12800
C1495       C  0.08361623  0.71914071  0.07219945     0.12900
C1496       C  0.09507549  0.73360898  0.09175233    -0.23300
C1497       C  0.07626878  0.83179510  0.08349983    -0.06300
H1498       H  0.05459067  0.79521422  0.04854015     0.14400
C1499       C  0.09020626  0.68039648  0.06839381    -0.16500
H1500       H  0.10638271  0.71648510  0.10391562     0.08700
H1501       H  0.18854469  0.84372958  0.13069636     0.06600
H1502       H  0.20343439  0.80128015  0.14037000     0.07800
H1503       H  0.18953848  0.83511796  0.15884422     0.06800
H1504       H  0.03920943  0.74459196  0.12559751     0.01700
H1505       H  0.02650816  0.78884619  0.11807378     0.02200
H1506       H  0.02340016  0.77495015  0.14559093     0.05700
H1507       H  0.06493287  0.84567262  0.06936596     0.04700
H1508       H  0.10318458  0.84255375  0.08651370    -0.01100
H1509       H  0.05920740  0.83748117  0.09756570     0.00400
H1510       H  0.11900053  0.67491881  0.06983606     0.04000
H1511       H  0.08172690  0.67159470  0.05221624     0.06000
H1512       H  0.07598837  0.66458894  0.08066264     0.06800
C1513       C  0.98073413  0.70147462  0.09396938    -0.22800
C1514       C  0.48317887  0.66600763  0.09856799     0.09200
C1515       C  0.49559639  0.64257128  0.08267359     0.09600
C1516       C  0.50647095  0.65614752  0.06279006    -0.17700
C1517       C  0.50493106  0.69254520  0.05843184    -0.28100
C1518       C  0.99072032  0.71495349  0.07394470     0.17900
C1519       C  0.47128086  0.65344796  0.11983061     0.11900
C1520       C  0.49710251  0.60333762  0.08662584    -0.12500
H1521       H  0.51700628  0.63840296  0.05072827     0.12200
C1522       C  0.98374031  0.75351235  0.06969494    -0.23300
H1523       H  0.97005052  0.71919123  0.10601381     0.07800
C1524       C  0.49506006  0.64974638  0.13718336     0.04100
C1525       C  0.48192696  0.63987594  0.15737097    -0.20500
C1526       C  0.44556904  0.63414937  0.16061576    -0.12800
C1527       C  0.42189147  0.63736693  0.14309186     0.12900
C1528       C  0.43510466  0.64706244  0.12290200    -0.23300
C1529       C  0.53412677  0.65658159  0.13446299    -0.06300
H1530       H  0.50006550  0.63698528  0.17077169     0.14400
C1531       C  0.38294481  0.62949366  0.14537457    -0.16500
H1532       H  0.41713449  0.64989537  0.10941358     0.08700
H1533       H  0.99909532  0.76988571  0.08120456     0.06600
H1534       H  0.95512413  0.75908546  0.07197995     0.07800
H1535       H  0.99061970  0.76157757  0.05313400     0.06800
H1536       H  0.47015076  0.59331696  0.09028091     0.01700
H1537       H  0.51486032  0.59749370  0.10036666     0.02200
H1538       H  0.50720755  0.58881987  0.07240260     0.05700
H1539       H  0.04896221  0.65206383  0.14981005     0.04700
H1540       H  0.03877669  0.68296738  0.12881211    -0.01100
H1541       H  0.54544599  0.63803120  0.12253277     0.00400
H1542       H  0.36882931  0.63140186  0.12975699     0.04000
H1543       H  0.37052778  0.64869740  0.15650873     0.06000
H1544       H  0.37927805  0.60226349  0.15161812     0.06800
C1545       C  0.21291394  0.91661034  0.40112852    -0.22800
C1546       C  0.20969510  0.89648428  0.41986021     0.09200
C1547       C  0.19214481  0.86352430  0.41908928     0.09600
C1548       C  0.17833052  0.85128463  0.39943609    -0.17700
C1549       C  0.18132636  0.87161815  0.38072148    -0.28100
C1550       C  0.19904542  0.90455099  0.38154486     0.17900
C1551       C  0.22521796  0.91051367  0.44003953     0.11900
C1552       C  0.18830274  0.84128523  0.43897024    -0.12500
H1553       H  0.16512195  0.82588682  0.39866365     0.12200
C1554       C  0.20437251  0.92654683  0.36163823    -0.23300
H1555       H  0.22662026  0.94175891  0.40184698     0.07800
C1556       C  0.26143287  0.90604490  0.44496037     0.04100
C1557       C  0.27493814  0.91982765  0.46424464    -0.20500
C1558       C  0.25332586  0.93895048  0.47843521    -0.12800
C1559       C  0.21722543  0.94435792  0.47310467     0.12900
C1560       C  0.20357772  0.92974290  0.45405704    -0.23300
C1561       C  0.28580670  0.88691452  0.42978654    -0.06300
H1562       H  0.30256411  0.91579158  0.46824364     0.14400
C1563       C  0.19332274  0.96668318  0.48693157    -0.16500
H1564       H  0.17596352  0.93367113  0.44990024     0.08700
H1565       H  0.21885880  0.91092177  0.34938148     0.06600
H1566       H  0.21997873  0.95079957  0.36503870     0.07800
H1567       H  0.17836795  0.93485167  0.35502663     0.06800
H1568       H  0.17312506  0.85608163  0.45128807     0.01700
H1569       H  0.21489008  0.83469366  0.44547842     0.02200
H1570       H  0.17408011  0.81619073  0.43559585     0.05700
H1571       H  0.31330595  0.88562106  0.43611079     0.04700
H1572       H  0.28649567  0.90090927  0.41413612    -0.01100
H1573       H  0.27621419  0.85950369  0.42724429     0.00400
H1574       H  0.16677299  0.97014083  0.47951196     0.04000
H1575       H  0.20516110  0.99328443  0.48917035     0.06000
H1576       H  0.18934382  0.95411163  0.50279344     0.06800
C1577       C  0.38560649  0.88847395  0.11734260    -0.22800
C1578       C  0.34891964  0.89395734  0.11542949     0.09200
C1579       C  0.32655556  0.88458346  0.13264044     0.09600
C1580       C  0.34145562  0.87059870  0.15145639    -0.17700
C1581       C  0.37825511  0.86617313  0.15373662    -0.28100
C1582       C  0.40061135  0.87490286  0.13634602     0.17900
C1583       C  0.33443159  0.90972286  0.09535994     0.11900
C1584       C  0.28706914  0.89041195  0.13150631    -0.12500
H1585       H  0.32424870  0.86418068  0.16480114     0.12200
C1586       C  0.44005008  0.86916046  0.13753354    -0.23300
H1587       H  0.40257541  0.89515071  0.10393721     0.07800
C1588       C  0.33986759  0.94565764  0.09015003     0.04100
C1589       C  0.32578731  0.95919596  0.07093885    -0.20500
C1590       C  0.30548462  0.93795613  0.05710548    -0.12800
C1591       C  0.29886564  0.90235561  0.06278369     0.12900
C1592       C  0.31400898  0.88854346  0.08161019    -0.23300
C1593       C  0.35963987  0.96997472  0.10511452    -0.06300
H1594       H  0.33039378  0.98659491  0.06673262     0.14400
C1595       C  0.27466658  0.87924005  0.04956750    -0.16500
H1596       H  0.30955160  0.86111873  0.08580319     0.08700
H1597       H  0.45320445  0.87566770  0.12210503     0.06600
H1598       H  0.44569007  0.84103662  0.14129186     0.07800
H1599       H  0.45182329  0.88627102  0.15011989     0.06800
H1600       H  0.27535424  0.87409070  0.11851837     0.01700
H1601       H  0.28142428  0.91872939  0.12832861     0.02200
H1602       H  0.27377256  0.88298875  0.14673593     0.05700
H1603       H  0.36036919  0.99748360  0.09892714     0.04700
H1604       H  0.38735673  0.96080668  0.10709553    -0.01100
H1605       H  0.34639089  0.97035857  0.12100838     0.00400
H1606       H  0.27059929  0.85302256  0.05717369     0.04000
H1607       H  0.28604152  0.87461898  0.03343610     0.06000
H1608       H  0.24862087  0.39097359  0.04719977     0.06800
C1609       C  0.47172685  0.75632233  0.39735529    -0.22800
C1610       C  0.47375610  0.78181306  0.41363713     0.09200
C1611       C  0.46523465  0.81729455  0.40910295     0.09600
C1612       C  0.45428353  0.82642882  0.38835884    -0.17700
C1613       C  0.45149485  0.80089848  0.37209901    -0.28100
C1614       C  0.46091988  0.76543363  0.37652504     0.17900
C1615       C  0.48495818  0.77092154  0.43536506     0.11900
C1616       C  0.46695562  0.84534996  0.42625385    -0.12500
H1617       H  0.44715979  0.85359522  0.38489988     0.12200
C1618       C  0.46122638  0.73686406  0.35966017    -0.23300
H1619       H  0.47893605  0.72920263  0.40090225     0.07800
C1620       C  0.46152786  0.75341226  0.44939329     0.04100
C1621       C  0.47325145  0.74414120  0.46999731    -0.20500
C1622       C  0.00744395  0.75187399  0.47676173    -0.12800
C1623       C  0.03010212  0.77128667  0.46311219     0.12900
C1624       C  0.01855150  0.77995303  0.44242187    -0.23300
C1625       C  0.42424826  0.74458137  0.44261593    -0.06300
H1626       H  0.45581787  0.72969977  0.48065118     0.14400
C1627       C  0.06621353  0.78382331  0.47000055    -0.16500
H1628       H  0.03606956  0.79429642  0.43175855     0.08700
H1629       H  0.44191275  0.71595582  0.36401316     0.06600
H1630       H  0.98813064  0.72503475  0.35889324     0.07800
H1631       H  0.45471004  0.74668759  0.34339422     0.06800
H1632       H  0.49450313  0.84796116  0.43229121     0.01700
H1633       H  0.44925885  0.83808516  0.43975777     0.02200
H1634       H  0.45849693  0.87155312  0.42007509     0.05700
H1635       H  0.40930024  0.73139143  0.45568690     0.04700
H1636       H  0.42474043  0.72648249  0.42859918    -0.01100
H1637       H  0.40995733  0.76917049  0.43818729     0.00400
H1638       H  0.08676655  0.77126812  0.45981207     0.04000
H1639       H  0.07190513  0.77790653  0.48706790     0.06000
H1640       H  0.06785833  0.81293757  0.46805411     0.06800
C1641       C  0.93814681  0.31321992  0.35109796     0.79900
N1642       N  0.95252325  0.34216486  0.34168792    -0.78400
C1643       C  0.93882854  0.35497392  0.32312335     0.82300
N1644       N  0.91032508  0.33910308  0.31406481    -0.78400
C1645       C  0.89562478  0.31033153  0.32345508     0.82400
N1646       N  0.90943408  0.29748730  0.34202959    -0.80100
C1647       C  0.89128289  0.35471370  0.17491304     0.79900
N1648       N  0.87329625  0.32937761  0.18592426    -0.78400
C1649       C  0.88022467  0.32345859  0.20700364     0.82300
N1650       N  0.90455865  0.34364793  0.21730064    -0.78400
C1651       C  0.92357217  0.36813738  0.20640406     0.82400
N1652       N  0.91656407  0.37397834  0.18527892    -0.80100
C1653       C  0.66790879  0.36006667  0.35978463     0.79900
N1654       N  0.68661965  0.33407495  0.34981336    -0.78400
C1655       C  0.67937362  0.32552582  0.32905681     0.82300
N1656       N  0.65401202  0.34361391  0.31821628    -0.78400
C1657       C  0.63423213  0.36843120  0.32831167     0.82400
N1658       N  0.64154556  0.37693653  0.34900144    -0.80100
C1659       C  0.93257116  0.12215956  0.18247813     0.79900
N1660       N  0.90491617  0.13841310  0.19233680    -0.78400
C1661       C  0.89374685  0.12719983  0.21190615     0.82300
N1662       N  0.91014058  0.09954740  0.22153588    -0.78400
C1663       C  0.93798234  0.08351595  0.21187159     0.82400
N1664       N  0.94922708  0.09492973  0.19242134    -0.80100
N1665       N  0.48587674  0.42950044  0.22599747    -0.06400
N1666       N  0.47668443  0.40683848  0.21078480    -0.58600
N1667       N  0.96423460  0.01009170  0.24242471    -0.06100
N1668       N  0.94227781  0.03682528  0.23968262    -0.60700
N1669       N  0.48868296  0.01016461  0.22734876    -0.05700
N1670       N  0.48375504  0.03671398  0.21397171    -0.58500
N1671       N  0.96253829  0.42935351  0.24164067    -0.05400
N1672       N  0.93736073  0.40612382  0.23758320    -0.61000
C1673       C  0.94665131  0.39225578  0.21843460     0.95700
C1674       C  0.95482858  0.05302086  0.22193940     0.95500
N1675       N  0.48685420  0.00889817  0.30833067    -0.06600
N1676       N  0.47797609  0.03150361  0.32360378    -0.59100
N1677       N  0.96381853  0.42866226  0.29232697    -0.04700
N1678       N  0.94173240  0.40207900  0.29532362    -0.60400
N1679       N  0.48833484  0.42870041  0.30727310    -0.06700
N1680       N  0.48355893  0.40242917  0.32082303    -0.59400
N1681       N  0.96307458  0.00921202  0.29282541    -0.04400
N1682       N  0.93809761  0.03260731  0.29695582    -0.60500
Mn1683     Mn  0.96269036  0.46958907  0.26710766     1.18400
C1684       C  0.94779708  0.04642945  0.31606403     0.97800
C1685       C  0.95454855  0.38609614  0.31314064     0.98500
N1686       N  0.57268524  0.00815383  0.22651377    -0.06700
N1687       N  0.58213777  0.03060310  0.21128529    -0.63000
N1688       N  0.59414860  0.42690923  0.24197197    -0.05500
N1689       N  0.61671802  0.40082124  0.23885161    -0.63700
N1690       N  0.56987934  0.42716486  0.22676320    -0.06200
N1691       N  0.57558723  0.40142361  0.21287969    -0.63300
N1692       N  0.59607467  0.00843780  0.24219038    -0.05100
N1693       N  0.62138114  0.03148578  0.23824019    -0.63900
Mn1694     Mn  0.52925789  0.46866277  0.22575228     1.10700
C1695       C  0.61225765  0.04529191  0.21906232     0.99000
C1696       C  0.60476531  0.38518595  0.22072650     0.99100
N1697       N  0.57185905  0.42881293  0.30798537    -0.06200
N1698       N  0.58078249  0.40635249  0.32332617    -0.61600
N1699       N  0.59537147  0.00964615  0.29272205    -0.05500
N1700       N  0.61803809  0.03573340  0.29594457    -0.58300
N1701       N  0.57085129  0.00973996  0.30771183    -0.06800
N1702       N  0.57635621  0.03564198  0.32148366    -0.61100
N1703       N  0.59522493  0.42786230  0.29238156    -0.05800
N1704       N  0.62002658  0.40431280  0.29650955    -0.58300
Mn1705     Mn  0.52967231  0.46907146  0.30819002     1.20200
Mn1706     Mn  0.59615489  0.46800668  0.26707012     1.10100
Cl1707     Cl  0.52939883  0.46880722  0.26699946    -0.86300
C1708       C  0.61052823  0.39087352  0.31570098     0.96000
C1709       C  0.60574773  0.05165215  0.31390820     0.95800
C1710       C  0.63225819  0.32040617  0.17958901     0.79900
N1711       N  0.61387519  0.34623716  0.18982848    -0.78400
C1712       C  0.62314580  0.35608915  0.21003522     0.82300
N1713       N  0.65058186  0.33982012  0.22006529    -0.78400
C1714       C  0.66841469  0.31340575  0.21012724     0.82400
N1715       N  0.65924894  0.30375698  0.18988187    -0.80100
C1716       C  0.89156866  0.07955704  0.36008209     0.79900
N1717       N  0.87371548  0.10609976  0.35006742    -0.78400
C1718       C  0.88106839  0.11421496  0.32929379     0.82300
N1719       N  0.90562306  0.09507515  0.31845266    -0.78400
C1720       C  0.92455104  0.06957814  0.32857231     0.82400
N1721       N  0.91712096  0.06155111  0.34929827    -0.80100
C1722       C  0.62616552  0.12092066  0.35385580     0.79900
N1723       N  0.65362267  0.13794227  0.34424990    -0.78400
C1724       C  0.66590560  0.12664458  0.32491023     0.82300
N1725       N  0.65047156  0.09849858  0.31511905    -0.78400
C1726       C  0.62266868  0.08187616  0.32444515     0.82400
N1727       N  0.61066748  0.09311368  0.34378053    -0.80100
C1728       C  0.66926043  0.07992512  0.17580423     0.79900
N1729       N  0.64324869  0.06174274  0.18608587    -0.78400
C1730       C  0.63594446  0.06857249  0.20702220     0.82300
N1731       N  0.65531204  0.09302340  0.21781215    -0.78400
C1732       C  0.68037683  0.11221336  0.20751923     0.82400
N1733       N  0.68774798  0.10517657  0.18663431    -0.80100
N1734       N  0.82113873  0.26030312  0.30855661    -0.06400
N1735       N  0.84792414  0.26519174  0.32186788    -0.58600
N1736       N  0.73975026  0.28585609  0.29375131    -0.06100
N1737       N  0.71663477  0.31108729  0.29779002    -0.60700
N1738       N  0.74031784  0.26266148  0.30947475    -0.05700
N1739       N  0.71800677  0.27217048  0.32479173    -0.58500
N1740       N  0.82111421  0.28452173  0.29339172    -0.05400
N1741       N  0.84797982  0.30638868  0.29604779    -0.61000
C1742       C  0.86438527  0.29394383  0.31381145     0.95700
C1743       C  0.70310368  0.30212513  0.31705892     0.95500
N1744       N  0.73868353  0.25998607  0.22798896    -0.06600
N1745       N  0.71348838  0.26600600  0.21375117    -0.59100
N1746       N  0.81998772  0.28516788  0.24285183    -0.04700
N1747       N  0.84342418  0.31003478  0.23864709    -0.60400
N1748       N  0.81931714  0.26157153  0.22735275    -0.06700
N1749       N  0.84186654  0.27034928  0.21203806    -0.59400
N1750       N  0.73858341  0.28449678  0.24300511    -0.04400
N1751       N  0.71303703  0.30757337  0.23937140    -0.60500
Mn1752     Mn  0.77980590  0.28589016  0.26827274     1.18400
C1753       C  0.69766158  0.29560981  0.22112866     0.97800
C1754       C  0.85705788  0.30032371  0.21952300     0.98500
N1755       N  0.73868569  0.17859531  0.30894238    -0.06700
N1756       N  0.71247038  0.17322370  0.32256170    -0.63000
N1757       N  0.82030395  0.15343914  0.29405490    -0.05500
N1758       N  0.84380710  0.12854952  0.29803189    -0.63700
N1759       N  0.81970750  0.17672761  0.30972292    -0.06200
N1760       N  0.84243166  0.16762028  0.32496925    -0.63300
N1761       N  0.73876694  0.15414482  0.29388817    -0.05100
N1762       N  0.71245755  0.13173678  0.29690189    -0.63900
Mn1763     Mn  0.77990764  0.21959064  0.30983737     1.10700
C1764       C  0.69631601  0.14399585  0.31478093     0.99000
C1765       C  0.85760216  0.13780487  0.31721014     0.99100
N1766       N  0.82080278  0.17818901  0.22830746    -0.06200
N1767       N  0.84681985  0.17299517  0.21456227    -0.61600
N1768       N  0.73972421  0.15255295  0.24330673    -0.05500
N1769       N  0.71689778  0.12706315  0.23916686    -0.58300
N1770       N  0.74002792  0.17583941  0.22764044    -0.06800
N1771       N  0.71784548  0.16614339  0.21225428    -0.61100
N1772       N  0.82123689  0.15398795  0.24347342    -0.05800
N1773       N  0.84778211  0.13184530  0.24038969    -0.58300
Mn1774     Mn  0.77960807  0.21886951  0.22724809     1.20200
Mn1775     Mn  0.78001946  0.15268189  0.26870170     1.10100
Cl1776     Cl  0.77974166  0.21926882  0.26851789    -0.86300
C1777       C  0.86343696  0.14410810  0.22234016     0.96000
C1778       C  0.70325699  0.13599327  0.21988817     0.95800
C1779       C  0.76831647  0.45659310  0.49815577     0.02000
C1780       C  0.79740213  0.48019463  0.49764909     0.01900
C1781       C  0.81208707  0.49220391  0.51701891    -0.18600
C1782       C  0.79883895  0.48100049  0.53688163     0.02000
C1783       C  0.76883687  0.45851635  0.53748319     0.01900
C1784       C  0.75469632  0.44575403  0.51809073    -0.18600
H1785       H  0.73278708  0.42727186  0.51853414     0.04000
H1786       H  0.83365199  0.00865150  0.51712724     0.04000
C1787       C  0.54848065  0.22800277  0.03725728     0.02000
C1788       C  0.51906989  0.20476085  0.03813795     0.01900
C1789       C  0.00343783  0.19304638  0.01893613    -0.18600
C1790       C  0.51535722  0.20543637  0.99894920     0.02000
C1791       C  0.54354647  0.23004047  0.99813611     0.01900
C1792       C  0.56019537  0.24033429  0.01728688    -0.18600
H1793       H  0.58225989  0.25865057  0.01664517     0.04000
H1794       H  0.98147536  0.17460939  0.01952418     0.04000
C1795       C  0.51842868  0.23594196  0.49752370     0.02000
C1796       C  0.54230239  0.20711190  0.49822490     0.01900
C1797       C  0.55277013  0.19366996  0.51824002    -0.18600
C1798       C  0.54083087  0.20908912  0.53744853     0.02000
C1799       C  0.51631620  0.23735835  0.53658710     0.01900
C1800       C  0.50521364  0.25025790  0.51661788    -0.18600
H1801       H  0.98643236  0.27165755  0.51591402     0.04000
H1802       H  0.57025000  0.17099476  0.51895435     0.04000
C1803       C  0.76671108  0.48281761  0.03720487     0.02000
C1804       C  0.79047240  0.45380992  0.03671965     0.01900
C1805       C  0.80157351  0.44051726  0.01676345    -0.18600
C1806       C  0.78879864  0.45473696  0.99745239     0.02000
C1807       C  0.76582895  0.48422515  0.99800504     0.01900
C1808       C  0.75434905  0.49725838  0.01782609    -0.18600
H1809       H  0.73673229  0.01885773  0.01792610     0.04000
H1810       H  0.82047153  0.41898501  0.01621032     0.04000
C1811       C  0.87195363  0.37633822  0.85156171     0.79900
N1812       N  0.90016188  0.39233903  0.84218614    -0.78400
C1813       C  0.91314630  0.37998892  0.82328852     0.82300
N1814       N  0.89797483  0.35149321  0.81378709    -0.78400
C1815       C  0.86979722  0.33546980  0.82305625     0.82400
N1816       N  0.85704176  0.34775141  0.84198047    -0.80100
C1817       C  0.91616696  0.10937317  0.86053852     0.79900
N1818       N  0.89017664  0.12712439  0.84993317    -0.78400
C1819       C  0.88283689  0.11935045  0.82910853     0.82300
N1820       N  0.90213200  0.09434371  0.81880141    -0.78400
C1821       C  0.92696973  0.07533803  0.82951170     0.82400
N1822       N  0.93422673  0.08316078  0.85033770    -0.80100
C1823       C  0.68508829  0.06670259  0.85275640     0.79900
N1824       N  0.65655019  0.05080499  0.84355175    -0.78400
C1825       C  0.64343050  0.06293092  0.82460624     0.82300
N1826       N  0.65863694  0.09124684  0.81497044    -0.78400
C1827       C  0.68699262  0.10730006  0.82411872     0.82400
N1828       N  0.70000403  0.09512670  0.84304010    -0.80100
C1829       C  0.64249796  0.33354911  0.86120272     0.79900
N1830       N  0.62401237  0.35921444  0.85069343    -0.78400
C1831       C  0.63039766  0.36607804  0.82966211     0.82300
N1832       N  0.65469922  0.34651923  0.81894149    -0.78400
C1833       C  0.67412305  0.32169649  0.82933767     0.82400
N1834       N  0.66755582  0.31481163  0.85036712    -0.80100
C1835       C  0.63315680  0.11367853  0.67756471     0.79900
N1836       N  0.66012557  0.13136675  0.68732325    -0.78400
C1837       C  0.67042097  0.12233815  0.70748267     0.82300
N1838       N  0.65290548  0.09641504  0.71807825    -0.78400
C1839       C  0.62704461  0.07769519  0.70811424     0.82400
N1840       N  0.61694117  0.08659836  0.68791846    -0.80100
C1841       C  0.87719327  0.06727179  0.68185699     0.79900
N1842       N  0.85984912  0.09438928  0.69159644    -0.78400
C1843       C  0.87001074  0.10537814  0.71147406     0.82300
N1844       N  0.89743984  0.08918393  0.72156150    -0.78400
C1845       C  0.91425665  0.06165937  0.71211432     0.82400
N1846       N  0.90402009  0.05070969  0.69233465    -0.80100
N1847       N  0.82255117  0.25932764  0.72669321    -0.06400
N1848       N  0.83219794  0.28171204  0.71147577    -0.58600
N1849       N  0.84329940  0.17818671  0.74267555    -0.06100
N1850       N  0.86525889  0.15151423  0.73970150    -0.60700
N1851       N  0.81894644  0.17861859  0.72750658    -0.05700
N1852       N  0.82396127  0.15241911  0.71383151    -0.58500
N1853       N  0.84597288  0.25941408  0.74235314    -0.05400
N1854       N  0.87151527  0.28223227  0.73839124    -0.61000
C1855       C  0.86248803  0.29613072  0.71922015     0.95700
C1856       C  0.85282878  0.13570987  0.72172012     0.95500
N1857       N  0.82109740  0.18064730  0.80882793    -0.06600
N1858       N  0.82987234  0.15813331  0.82418294    -0.59100
N1859       N  0.84460891  0.26102406  0.79278887    -0.04700
N1860       N  0.86656305  0.28784070  0.79549639    -0.60400
N1861       N  0.82006510  0.26129915  0.80776402    -0.06700
N1862       N  0.82479219  0.28806183  0.82099632    -0.59400
N1863       N  0.84449808  0.17957435  0.79324491    -0.04400
N1864       N  0.86919011  0.15591058  0.79741636    -0.60500
Mn1865     Mn  0.84552009  0.21950740  0.76777935     1.18400
C1866       C  0.85959380  0.14253301  0.81661377     0.97800
C1867       C  0.85377606  0.30435079  0.81312788     0.98500
N1868       N  0.73484033  0.18178416  0.72680719    -0.06700
N1869       N  0.72488061  0.15945909  0.71158186    -0.63000
N1870       N  0.71404882  0.26287901  0.74256537    -0.05500
N1871       N  0.69203615  0.28949047  0.73946888    -0.63700
N1872       N  0.73837890  0.26235089  0.72744234    -0.06200
N1873       N  0.73332645  0.28843412  0.71370784    -0.63300
N1874       N  0.71165437  0.18176942  0.74253661    -0.05100
N1875       N  0.68602334  0.15903938  0.73863742    -0.63900
Mn1876     Mn  0.77868111  0.22052389  0.72644123     1.10700
C1877       C  0.69470965  0.14512772  0.71944602     0.99000
C1878       C  0.70444088  0.30515396  0.72147997     0.99100
N1879       N  0.73638611  0.26102567  0.80885942    -0.06200
N1880       N  0.72734912  0.28318145  0.82435085    -0.61600
N1881       N  0.71283659  0.18059514  0.79304710    -0.05500
N1882       N  0.69053935  0.15416400  0.79607170    -0.58300
N1883       N  0.73747295  0.18049074  0.80803066    -0.06800
N1884       N  0.73248400  0.15424252  0.82157861    -0.61100
N1885       N  0.71288427  0.26196955  0.79326251    -0.05800
N1886       N  0.68785088  0.28519473  0.79756662    -0.58300
Mn1887     Mn  0.77879961  0.22087629  0.80896626     1.20200
Mn1888     Mn  0.71197487  0.22184668  0.76783971     1.10100
Cl1889     Cl  0.77873533  0.22070254  0.76772527    -0.86300
C1890       C  0.69731694  0.29840390  0.81687293     0.96000
C1891       C  0.70323144  0.13805558  0.81389917     0.95800
C1892       C  0.91787819  0.33149238  0.67539101     0.79900
N1893       N  0.93643216  0.35708382  0.68591077    -0.78400
C1894       C  0.93009578  0.36360736  0.70703006     0.82300
N1895       N  0.90572291  0.34394286  0.71765548    -0.78400
C1896       C  0.88620090  0.31933559  0.70709963     0.82400
N1897       N  0.89280894  0.31270038  0.68608699    -0.80100
C1898       C  0.68249314  0.37524967  0.68218566     0.79900
N1899       N  0.65521538  0.39166449  0.69234621    -0.78400
C1900       C  0.64388106  0.37995916  0.71176262     0.82300
N1901       N  0.65998142  0.35186172  0.72107910    -0.78400
C1902       C  0.68765655  0.33575190  0.71127790     0.82400
N1903       N  0.69894752  0.34750751  0.69184725    -0.80100
N1904       N  0.98776020  0.42983856  0.80862948    -0.06400
N1905       N  0.96077366  0.42512541  0.82172747    -0.58600
N1906       N  0.56976019  0.40512941  0.79412573    -0.06100
N1907       N  0.59320957  0.38021557  0.79822651    -0.60700
N1908       N  0.56895528  0.42841687  0.80980484    -0.05700
N1909       N  0.59145470  0.41925760  0.82516444    -0.58500
N1910       N  0.98800519  0.40547361  0.79352668    -0.05400
N1911       N  0.96102706  0.38368470  0.79602717    -0.61000
C1912       C  0.94436346  0.39633994  0.81363163     0.95700
C1913       C  0.60672843  0.38943091  0.81749079     0.95500
N1914       N  0.57081856  0.43064685  0.72840837    -0.06600
N1915       N  0.59690440  0.42571067  0.71467103    -0.59100
N1916       N  0.98961995  0.40385355  0.74292374    -0.04700
N1917       N  0.96700874  0.37824015  0.73861547    -0.60400
N1918       N  0.98983769  0.42728899  0.72734645    -0.06700
N1919       N  0.96780801  0.41760033  0.71185461    -0.59400
N1920       N  0.57127209  0.40621850  0.74344866    -0.04400
N1921       N  0.59788352  0.38418277  0.74027532    -0.60500
Mn1922     Mn  0.52976749  0.40433739  0.76852182     1.18400
C1923       C  0.61359689  0.39676260  0.72232187     0.97800
C1924       C  0.95342033  0.38722334  0.71931828     0.98500
N1925       N  0.56969197  0.01195785  0.80920876    -0.06700
N1926       N  0.59629189  0.01707897  0.82264064    -0.63000
N1927       N  0.98797533  0.03670038  0.79424675    -0.05500
N1928       N  0.96433833  0.06146569  0.79822926    -0.63700
N1929       N  0.98877093  0.01339467  0.80987910    -0.06200
N1930       N  0.96605071  0.02233451  0.82510299    -0.63300
N1931       N  0.56942754  0.03637888  0.79416955    -0.05100
N1932       N  0.59597898  0.05858711  0.79700896    -0.63900
Mn1933     Mn  0.52881728  0.47105642  0.80993868     1.10700
C1934       C  0.61243268  0.04618362  0.81477841     0.99000
C1935       C  0.95065110  0.05206608  0.81737587     0.99100
N1936       N  0.98748133  0.01121393  0.72859900    -0.06200
N1937       N  0.96128345  0.01614265  0.71489346    -0.61600
N1938       N  0.56830782  0.03738668  0.74374986    -0.05500
N1939       N  0.59136955  0.06266478  0.73976989    -0.58300
N1940       N  0.56802616  0.01407307  0.72809490    -0.06800
N1941       N  0.59046205  0.02349663  0.71287529    -0.61100
N1942       N  0.98698985  0.03552489  0.74372980    -0.05800
N1943       N  0.96022606  0.05742442  0.74067952    -0.58300
Mn1944     Mn  0.52910342  0.47091792  0.72737932     1.20200
Mn1945     Mn  0.52808452  0.03741147  0.76898941     1.10100
Cl1946     Cl  0.52896451  0.47095856  0.76864817    -0.86300
C1947       C  0.94448080  0.04489593  0.72269727     0.96000
C1948       C  0.60522613  0.05348240  0.72063038     0.95800
C1949       C  0.71480292  0.01048263  0.90020264    -0.22800
C1950       C  0.71943519  0.03650880  0.91597102     0.09200
C1951       C  0.71406670  0.07233280  0.91070581     0.09600
C1952       C  0.70350266  0.08126526  0.88979836    -0.17700
C1953       C  0.69816082  0.05521513  0.87403141    -0.28100
C1954       C  0.70463540  0.01933343  0.87920655     0.17900
C1955       C  0.73053612  0.02549207  0.93777507     0.11900
C1956       C  0.71876172  0.10101157  0.92724691    -0.12500
H1957       H  0.69867652  0.10874162  0.88584759     0.12200
C1958       C  0.70265146  0.98982949  0.86297378    -0.23300
H1959       H  0.71970018  0.98304424  0.90425729     0.07800
C1960       C  0.70433367  0.51305155  0.95332522     0.04100
C1961       C  0.71720415  0.49988055  0.97288801    -0.20500
C1962       C  0.75336276  0.50176893  0.97805084    -0.12800
C1963       C  0.77813165  0.01873313  0.96400457     0.12900
C1964       C  0.76592093  0.03024164  0.94393143    -0.23300
C1965       C  0.66534921  0.51082274  0.94834897    -0.06300
H1966       H  0.69916842  0.48715948  0.98397025     0.14400
C1967       C  0.81588906  0.02710280  0.97001952    -0.16500
H1968       H  0.78413963  0.04304194  0.93298126     0.08700
H1969       H  0.68133990  0.97109992  0.86755597     0.06600
H1970       H  0.72827287  0.97541014  0.86272215     0.07800
H1971       H  0.69767644  0.99914143  0.84641252     0.06800
H1972       H  0.74654006  0.10127820  0.93310187     0.01700
H1973       H  0.70069935  0.09620185  0.94097555     0.02200
H1974       H  0.71272949  0.12754234  0.92055973     0.05700
H1975       H  0.65028422  0.49874939  0.96176264     0.04700
H1976       H  0.66102383  0.49446702  0.93379126    -0.01100
H1977       H  0.65467841  0.53776993  0.94551577     0.00400
H1978       H  0.83417682  0.01467737  0.95830654     0.04000
H1979       H  0.82299061  0.01794903  0.98636140     0.06000
H1980       H  0.81989694  0.05615559  0.96957164     0.06800
C1981       C  0.78877221  0.41196281  0.94211664    -0.22800
C1982       C  0.82400739  0.41747395  0.93594750     0.09200
C1983       C  0.84809714  0.43281458  0.95056839     0.09600
C1984       C  0.83616923  0.44307270  0.97093562    -0.17700
C1985       C  0.80054957  0.43911478  0.97680162    -0.28100
C1986       C  0.77678622  0.42219803  0.96248277     0.17900
C1987       C  0.83534457  0.40656027  0.91419976     0.11900
C1988       C  0.88631583  0.43851984  0.94462771    -0.12500
H1989       H  0.85440073  0.45554840  0.98206099     0.12200
C1990       C  0.73898948  0.41381384  0.96829216    -0.23300
H1991       H  0.77053603  0.39951230  0.93097006     0.07800
C1992       C  0.84217129  0.37084453  0.90927533     0.01300
C1993       C  0.85372338  0.36186357  0.88861037    -0.20500
C1994       C  0.85920910  0.38783269  0.87287215    -0.12800
C1995       C  0.85214982  0.42364417  0.87779585     0.12900
C1996       C  0.84004576  0.43251756  0.89841260    -0.23300
C1997       C  0.83797458  0.34234643  0.92594980    -0.06300
H1998       H  0.85918734  0.33443731  0.88482937     0.14400
C1999       C  0.85632460  0.45240611  0.86128026    -0.16500
H2000       H  0.83447121  0.45986368  0.90234730     0.08700
H2001       H  0.73456656  0.38489234  0.96692956     0.06600
H2002       H  0.72076379  0.42753647  0.95704436     0.07800
H2003       H  0.73218781  0.42168801  0.98491130     0.06800
H2004       H  0.88807065  0.45671000  0.93070668     0.01700
H2005       H  0.89870090  0.41285611  0.94037236     0.02200
H2006       H  0.90165217  0.45032332  0.95806806     0.05700
H2007       H  0.84518692  0.31591828  0.91954770     0.04700
H2008       H  0.81003889  0.34121243  0.93140276    -0.01100
H2009       H  0.85540836  0.34807488  0.93990099     0.00400
H2010       H  0.84775954  0.47849777  0.86758219     0.04000
H2011       H  0.83994135  0.44622488  0.84693998     0.06000
H2012       H  0.88451515  0.45480102  0.85652257     0.06800
C2013       C  0.60079864  0.18183308  0.58380618    -0.22800
C2014       C  0.57634267  0.16625873  0.59774651     0.09200
C2015       C  0.54018605  0.16515585  0.59208073     0.09600
C2016       C  0.52938469  0.17909874  0.57225072    -0.17700
C2017       C  0.55383236  0.19481517  0.55821881    -0.28100
C2018       C  0.59004621  0.19644355  0.56418892     0.17900
C2019       C  0.58942745  0.15172485  0.61831735     0.11900
C2020       C  0.51314649  0.14917746  0.60691839    -0.12500
H2021       H  0.50173352  0.17770948  0.56763218     0.12200
C2022       C  0.61798590  0.21416353  0.55068612    -0.23300
H2023       H  0.62849303  0.18295100  0.58841139     0.07800
C2024       C  0.60359698  0.11730168  0.61968187     0.04100
C2025       C  0.61753698  0.10539038  0.63930152    -0.20500
C2026       C  0.61773698  0.12728170  0.65745885    -0.12800
C2027       C  0.60212772  0.16130512  0.65626349     0.12900
C2028       C  0.58864453  0.17324377  0.63658140    -0.23300
C2029       C  0.60404346  0.09329182  0.60040871    -0.06300
H2030       H  0.62874872  0.07908538  0.64042316     0.14400
C2031       C  0.59803230  0.18529195  0.67545127    -0.16500
H2032       H  0.57719158  0.19947071  0.63548595     0.08700
H2033       H  0.63810766  0.19438455  0.54575959     0.06600
H2034       H  0.63121878  0.23511968  0.56026939     0.07800
H2035       H  0.60725631  0.22688702  0.53607313     0.06800
H2036       H  0.51305284  0.16371801  0.62239496     0.01700
H2037       H  0.51971900  0.12103273  0.60995864     0.02200
H2038       H  0.48602494  0.15044841  0.60001456     0.05700
H2039       H  0.61580202  0.06714754  0.60425925     0.04700
H2040       H  0.61993142  0.10547000  0.58739825    -0.01100
H2041       H  0.57657115  0.08896407  0.59458373     0.00400
H2042       H  0.61317730  0.21003868  0.67278258     0.04000
H2043       H  0.60715429  0.17323976  0.69067096     0.06000
H2044       H  0.56961028  0.19203664  0.67752681     0.06800
C2045       C  0.94352142  0.32739443  0.61634702    -0.22800
C2046       C  0.95627787  0.29263011  0.61493146     0.09200
C2047       C  0.95606994  0.27083121  0.63328609     0.09600
C2048       C  0.94234506  0.28408593  0.65258374    -0.17700
C2049       C  0.92989974  0.31896909  0.65414200    -0.28100
C2050       C  0.93053945  0.34094662  0.63584471     0.17900
C2051       C  0.97076805  0.27974836  0.59427629     0.11900
C2052       C  0.97129973  0.23399124  0.63266025    -0.12500
H2053       H  0.94227943  0.26745020  0.66674711     0.12200
C2054       C  0.91693497  0.37830803  0.63678216    -0.23300
H2055       H  0.94396472  0.34398590  0.60217557     0.07800
C2056       C  0.95006061  0.25960388  0.57989768     0.04100
C2057       C  0.96565946  0.24633232  0.56111869    -0.20500
C2058       C  0.50123536  0.25343357  0.55628606    -0.12800
C2059       C  0.52152565  0.27484023  0.57029848     0.12900
C2060       C  0.50612189  0.28738266  0.58930813    -0.23300
C2061       C  0.91147993  0.25248615  0.58425713    -0.06300
H2062       H  0.95011161  0.23023942  0.55021576     0.14400
C2063       C  0.55907147  0.28562698  0.56548597    -0.16500
H2064       H  0.52180119  0.30318317  0.60030531     0.08700
H2065       H  0.91846778  0.39149981  0.62088990     0.06600
H2066       H  0.93293100  0.39395654  0.64833695     0.07800
H2067       H  0.88881720  0.37829635  0.64197124     0.06800
H2068       H  0.99966168  0.23516950  0.62803413     0.01700
H2069       H  0.95681156  0.21755234  0.62080566     0.02200
H2070       H  0.96950726  0.22073893  0.64852004     0.05700
H2071       H  0.89912054  0.23660569  0.57124798     0.04700
H2072       H  0.89695960  0.27791443  0.58546892    -0.01100
H2073       H  0.90842234  0.23775217  0.59951617     0.00400
H2074       H  0.56096053  0.31490518  0.56537485     0.04000
H2075       H  0.56834750  0.27610021  0.54966013     0.06000
H2076       H  0.57701205  0.27510264  0.57809183     0.06800
C2077       C  0.57046650  0.29636966  0.95523373    -0.22800
C2078       C  0.58742118  0.27448572  0.94029939     0.09200
C2079       C  0.58894297  0.23770606  0.94407103     0.09600
C2080       C  0.57355828  0.22372363  0.96277255    -0.17700
C2081       C  0.55649010  0.24564716  0.97770845    -0.28100
C2082       C  0.55465100  0.28248235  0.97373852     0.17900
C2083       C  0.60170358  0.29061774  0.92034256     0.11900
C2084       C  0.60645018  0.21320626  0.92827665    -0.12500
H2085       H  0.57530951  0.19562328  0.96593604     0.12200
C2086       C  0.53570998  0.30795366  0.98839253    -0.23300
H2087       H  0.56911667  0.32456398  0.95224793     0.07800
C2088       C  0.57880942  0.30291518  0.90406230     0.04100
C2089       C  0.59315400  0.31809568  0.88548076    -0.20500
C2090       C  0.62995924  0.32109983  0.88251768    -0.12800
C2091       C  0.65294861  0.30928373  0.89906895     0.12900
C2092       C  0.63846046  0.29409323  0.91771679    -0.23300
C2093       C  0.53919321  0.29895581  0.90594523    -0.06300
H2094       H  0.57537745  0.32657247  0.87280849     0.14400
C2095       C  0.69264792  0.31311271  0.89802547    -0.16500
H2096       H  0.65598068  0.28513033  0.93040585     0.08700
H2097       H  0.51481515  0.32203476  0.97919069     0.06600
H2098       H  0.55486813  0.32763051  0.99473498     0.07800
H2099       H  0.52266522  0.29495656  0.00218465     0.06800
H2100       H  0.63491285  0.22002982  0.92671695     0.01700
H2101       H  0.59338570  0.21564906  0.91236530     0.02200
H2102       H  0.60461667  0.18518870  0.93345353     0.05700
H2103       H  0.52525969  0.30865895  0.89138092     0.04700
H2104       H  0.52930677  0.31436234  0.91984606    -0.01100
H2105       H  0.53231446  0.27066273  0.90815411     0.00400
H2106       H  0.70215076  0.32765550  0.91241451     0.04000
H2107       H  0.70176182  0.32812852  0.88384119     0.06000
H2108       H  0.70511014  0.28653900  0.89781129     0.06800
C2109       C  0.95896555  0.19742446  0.94831853    -0.22800
C2110       C  0.96664983  0.16266272  0.94207243     0.09200
C2111       C  0.98955479  0.14190716  0.95480932     0.09600
C2112       C  0.50487181  0.15673112  0.97324278    -0.17700
C2113       C  0.99781949  0.19167972  0.97932067    -0.28100
C2114       C  0.97384266  0.21205251  0.96699120     0.17900
C2115       C  0.95256547  0.14926953  0.92137145     0.11900
C2116       C  0.49746946  0.10425083  0.94889030    -0.12500
H2117       H  0.52274287  0.14096385  0.98294055     0.12200
C2118       C  0.96286175  0.24888460  0.97325044    -0.23300
H2119       H  0.94130389  0.21326687  0.93852336     0.07800
C2120       C  0.91708313  0.13818408  0.91881315     0.04100
C2121       C  0.90578815  0.12504128  0.89878876    -0.20500
C2122       C  0.92916883  0.12307509  0.88132757    -0.12800
C2123       C  0.96427433  0.13583679  0.88375096     0.12900
C2124       C  0.97559176  0.14807345  0.90383388    -0.23300
C2125       C  0.89137518  0.13992090  0.93721761    -0.06300
H2126       H  0.87870814  0.11610891  0.89676445     0.14400
C2127       C  0.99019502  0.13874605  0.86542949    -0.16500
H2128       H  0.00255006  0.15749871  0.90575088     0.08700
H2129       H  0.93359481  0.24999695  0.97483950     0.06600
H2130       H  0.97127217  0.26780380  0.96064119     0.07800
H2131       H  0.97433319  0.25740720  0.98877539     0.06800
H2132       H  0.51076663  0.10316235  0.93304184     0.01700
H2133       H  0.97263400  0.08872082  0.94820986     0.02200
H2134       H  0.51518416  0.09148990  0.96084426     0.05700
H2135       H  0.86483418  0.12975852  0.93258343     0.04700
H2136       H  0.88824887  0.16772246  0.94257214    -0.01100
H2137       H  0.90139963  0.12377072  0.95080107     0.00400
H2138       H  0.99968047  0.16645627  0.86421539     0.04000
H2139       H  0.97872661  0.13187713  0.84962280     0.06000
H2140       H  0.51320392  0.12147115  0.86856172     0.06800
C2141       C  0.84088328  0.48532130  0.59237461    -0.22800
C2142       C  0.83786772  0.01796338  0.59739694     0.09200
C2143       C  0.82643545  0.04130826  0.58117497     0.09600
C2144       C  0.81562202  0.02754902  0.56131616    -0.17700
C2145       C  0.81594640  0.49430918  0.55680206    -0.28100
C2146       C  0.83067248  0.47145053  0.57245180     0.17900
C2147       C  0.84735024  0.03089656  0.61904421     0.11900
C2148       C  0.82563882  0.08065258  0.58484119    -0.12500
H2149       H  0.80514526  0.04520006  0.54917126     0.12200
C2150       C  0.83695385  0.43267873  0.56851878    -0.23300
H2151       H  0.85097559  0.46777034  0.60470545     0.07800
C2152       C  0.82141757  0.03646675  0.63496825     0.04100
C2153       C  0.83183561  0.04916357  0.65521192    -0.20500
C2154       C  0.86757236  0.05617752  0.65985391    -0.12800
C2155       C  0.89340644  0.05114336  0.64362755     0.12900
C2156       C  0.88293559  0.03798711  0.62356761    -0.23300
C2157       C  0.78291887  0.02850483  0.63068527    -0.06300
H2158       H  0.81210948  0.05296565  0.66761104     0.14400
C2159       C  0.93195919  0.06067902  0.64638823    -0.16500
H2160       H  0.90260755  0.03398695  0.61114591     0.08700
H2161       H  0.82180130  0.41683364  0.58034374     0.06600
H2162       H  0.86556633  0.42678002  0.57057995     0.07800
H2163       H  0.82935801  0.42428425  0.55210010     0.06800
H2164       H  0.85270625  0.09016029  0.58877675     0.01700
H2165       H  0.80764912  0.08718676  0.59831081     0.02200
H2166       H  0.81626633  0.09508132  0.57038958     0.05700
H2167       H  0.76626723  0.03354458  0.64503320     0.04700
H2168       H  0.78040595  0.50444530  0.62533619    -0.01100
H2169       H  0.77287746  0.04524663  0.61740724     0.00400
H2170       H  0.94836230  0.03636287  0.64562390     0.04000
H2171       H  0.93773105  0.07469313  0.66158110     0.06000
H2172       H  0.94012627  0.07867582  0.63322249     0.06800
C2173       C  0.68248995  0.40473936  0.62370436    -0.22800
C2174       C  0.71854591  0.41138711  0.62044643     0.09200
C2175       C  0.74276305  0.40607496  0.63742697     0.09600
C2176       C  0.73023318  0.39395965  0.65734615    -0.17700
C2177       C  0.69404315  0.38722343  0.66067795    -0.28100
C2178       C  0.66991603  0.39218643  0.64345508     0.17900
C2179       C  0.73027917  0.42305891  0.59889463     0.11900
C2180       C  0.78169743  0.41344345  0.63455193    -0.12500
H2181       H  0.74871630  0.39010566  0.67047336     0.12200
C2182       C  0.63110973  0.38296796  0.64478162    -0.23300
H2183       H  0.66411043  0.40847255  0.61050106     0.07800
C2184       C  0.74132310  0.39854556  0.58321267     0.04100
C2185       C  0.75260733  0.41082784  0.56309632    -0.20500
C2186       C  0.75266199  0.44704991  0.55818085    -0.12800
C2187       C  0.73873537  0.47126085  0.57338038     0.12900
C2188       C  0.72859297  0.45902164  0.59372459    -0.23300
C2189       C  0.74104754  0.35944222  0.58769566    -0.06300
H2190       H  0.76241361  0.39215431  0.55133154     0.14400
C2191       C  0.73278298  0.50977539  0.56847577    -0.16500
H2192       H  0.71870876  0.47759955  0.60553715     0.08700
H2193       H  0.62426286  0.36430080  0.63165059     0.06600
H2194       H  0.61498683  0.40729837  0.64286220     0.07800
H2195       H  0.62360794  0.36990143  0.65997564     0.06800
H2196       H  0.78563410  0.44152572  0.63009079     0.01700
H2197       H  0.79266163  0.39645787  0.62166470     0.02200
H2198       H  0.79692384  0.40822282  0.64948980     0.05700
H2199       H  0.75025736  0.34393628  0.57363692     0.04700
H2200       H  0.71369921  0.35083004  0.59160008    -0.01100
H2201       H  0.75870581  0.35333331  0.60144940     0.00400
H2202       H  0.70385964  0.01144328  0.57013320     0.04000
H2203       H  0.73994215  0.51686220  0.55179108     0.06000
H2204       H  0.74845508  0.52628710  0.57975020     0.06800
C2205       C  0.67360512  0.04750215  0.11788674    -0.22800
C2206       C  0.70984697  0.03982607  0.11608166     0.09200
C2207       C  0.73257534  0.04616388  0.13365228     0.09600
C2208       C  0.71858266  0.06029709  0.15263840    -0.17700
C2209       C  0.68223035  0.06752637  0.15467886    -0.28100
C2210       C  0.65940806  0.06099528  0.13708496     0.17900
C2211       C  0.72366787  0.02491563  0.09574235     0.11900
C2212       C  0.77093276  0.53764094  0.13264873    -0.12500
H2213       H  0.73600617  0.06475885  0.16622600     0.12200
C2214       C  0.62035624  0.06891477  0.13831941    -0.23300
H2215       H  0.65637873  0.04261900  0.10426469     0.07800
C2216       C  0.71995495  0.98875004  0.09073149     0.04100
C2217       C  0.73442252  0.97570259  0.07157227    -0.20500
C2218       C  0.75354452  0.99772158  0.05763520    -0.12800
C2219       C  0.75805117  0.53411533  0.06300697     0.12900
C2220       C  0.74245487  0.04705105  0.08180775    -0.23300
C2221       C  0.70129945  0.96384950  0.10578241    -0.06300
H2222       H  0.73080109  0.94813458  0.06743140     0.14400
C2223       C  0.78020465  0.55914403  0.04982698    -0.16500
H2224       H  0.74581831  0.57509262  0.08582338     0.08700
H2225       H  0.60682993  0.06388796  0.12276523     0.06600
H2226       H  0.61630541  0.09711316  0.14259167     0.07800
H2227       H  0.60767040  0.05189525  0.15058277     0.06800
H2228       H  0.78410433  0.55318344  0.11985400     0.01700
H2229       H  0.77414020  0.50902489  0.12918833     0.02200
H2230       H  0.78457120  0.54347266  0.14806032     0.05700
H2231       H  0.70133371  0.93631055  0.09960371     0.04700
H2232       H  0.67336308  0.97225540  0.10788491    -0.01100
H2233       H  0.71484680  0.96394868  0.12162026     0.00400
H2234       H  0.76312798  0.58047554  0.04328280     0.04000
H2235       H  0.79405872  0.54607028  0.03634291     0.06000
H2236       H  0.80091531  0.57118162  0.06018850     0.06800
C2237       C  0.60145781  0.18041841  0.45141605    -0.22800
C2238       C  0.57621162  0.16790723  0.43675358     0.09200
C2239       C  0.54039743  0.16557323  0.44290816     0.09600
C2240       C  0.53050696  0.17649811  0.46355732    -0.17700
C2241       C  0.55544654  0.19052550  0.47803334    -0.28100
C2242       C  0.59161449  0.19158772  0.47206898     0.17900
C2243       C  0.58820011  0.15634874  0.41525502     0.11900
C2244       C  0.51259015  0.15220120  0.42755011    -0.12500
H2245       H  0.50294641  0.17503806  0.46826560     0.12200
C2246       C  0.61992033  0.20490372  0.48714715    -0.23300
H2247       H  0.62899762  0.18152286  0.44659724     0.07800
C2248       C  0.59243029  0.18048177  0.39820060     0.04100
C2249       C  0.60532223  0.16830722  0.37838158    -0.20500
C2250       C  0.61322550  0.13243168  0.37515132    -0.12800
C2251       C  0.60859740  0.10825716  0.39227279     0.12900
C2252       C  0.59632355  0.12063092  0.41214824    -0.23300
C2253       C  0.58302706  0.21891623  0.40091990    -0.06300
H2254       H  0.60869753  0.18674373  0.36523590     0.14400
C2255       C  0.61768396  0.06964228  0.38998149    -0.16500
H2256       H  0.59310947  0.10239519  0.42541509     0.08700
H2257       H  0.64627458  0.20578009  0.47928305     0.06600
H2258       H  0.62217347  0.18707649  0.50118435     0.07800
H2259       H  0.61360633  0.23193650  0.49276318     0.06800
H2260       H  0.51878455  0.12462935  0.42277389     0.01700
H2261       H  0.51194986  0.16914194  0.41301614     0.02200
H2262       H  0.48577836  0.15251570  0.43485302     0.05700
H2263       H  0.58766036  0.23416407  0.38596095     0.04700
H2264       H  0.59939908  0.23074906  0.41388063    -0.01100
H2265       H  0.55460622  0.22146703  0.40520779     0.00400
H2266       H  0.61450184  0.05519173  0.40537039     0.04000
H2267       H  0.64564885  0.06676042  0.38478882     0.06000
H2268       H  0.59991324  0.05697536  0.37804941     0.06800
C2269       C  0.85878975  0.00260329  0.45210784    -0.22800
C2270       C  0.83688408  0.02483008  0.43996345     0.09200
C2271       C  0.80257613  0.53081448  0.44523376     0.09600
C2272       C  0.78992621  0.51565544  0.46430225    -0.17700
C2273       C  0.81179404  0.49437930  0.47717916    -0.28100
C2274       C  0.84640380  0.98639222  0.47090735     0.17900
C2275       C  0.85094341  0.03986804  0.41975747     0.11900
C2276       C  0.77770000  0.55176163  0.43122383    -0.12500
H2277       H  0.76284439  0.52041622  0.46921508     0.12200
C2278       C  0.87062197  0.96179248  0.48306222    -0.23300
H2279       H  0.88563796  0.99776989  0.44672802     0.07800
C2280       C  0.86728485  0.07342718  0.41897285     0.04100
C2281       C  0.88030361  0.08612085  0.39927554    -0.20500
C2282       C  0.87818606  0.06545117  0.38062170    -0.12800
C2283       C  0.86197021  0.03174812  0.38153465     0.12900
C2284       C  0.84846885  0.01945966  0.40109289    -0.23300
C2285       C  0.87136730  0.09549148  0.43894146    -0.06300
H2286       H  0.89259091  0.11196731  0.39847152     0.14400
C2287       C  0.85799015  0.00898060  0.36180193    -0.16500
H2288       H  0.84371995  0.49190840  0.40213772     0.08700
H2289       H  0.87616878  0.97237212  0.49931334     0.06600
H2290       H  0.89643209  0.95842728  0.47479262     0.07800
H2291       H  0.85813588  0.93536343  0.48451780     0.06800
H2292       H  0.77587593  0.53922805  0.41514353     0.01700
H2293       H  0.78755094  0.08033728  0.43199110     0.02200
H2294       H  0.75061490  0.55291316  0.43811271     0.05700
H2295       H  0.88494038  0.12091885  0.43555705     0.04700
H2296       H  0.88731966  0.08083509  0.45099277    -0.01100
H2297       H  0.84496780  0.10147862  0.44582666     0.00400
H2298       H  0.88444818  0.00144294  0.35559147     0.04000
H2299       H  0.84320624  0.02364610  0.34921899     0.06000
H2300       H  0.85494293  0.48067757  0.36616533     0.06800
C2301       C  0.63590775  0.29592893  0.12047238    -0.22800
C2302       C  0.60110188  0.28436276  0.11712600     0.09200
C2303       C  0.57636179  0.28596218  0.13401861     0.09600
C2304       C  0.58718887  0.29870824  0.15411542    -0.17700
C2305       C  0.62220274  0.30965939  0.15767804    -0.28100
C2306       C  0.64676762  0.30896036  0.14051766     0.17900
C2307       C  0.59085438  0.27069097  0.09579561     0.11900
C2308       C  0.53864368  0.27398558  0.13083248    -0.12500
H2309       H  0.56843129  0.29945016  0.16725340     0.12200
C2310       C  0.68412110  0.32275750  0.14247474    -0.23300
H2311       H  0.65459050  0.29511352  0.10729020     0.07800
C2312       C  0.57681481  0.29316597  0.07990056     0.04100
C2313       C  0.56453341  0.27852064  0.06061351    -0.20500
C2314       C  0.56590678  0.24190755  0.05693012    -0.12800
C2315       C  0.58258697  0.21981803  0.07225810     0.12900
C2316       C  0.59423939  0.23445884  0.09170579    -0.23300
C2317       C  0.57422899  0.33244374  0.08348600    -0.06300
H2318       H  0.55248231  0.29554313  0.04866619     0.14400
C2319       C  0.58939118  0.18110353  0.06846819    -0.16500
H2320       H  0.60593089  0.21748897  0.10381595     0.08700
H2321       H  0.68855866  0.34356602  0.13020521     0.06600
H2322       H  0.70316754  0.30089687  0.13967346     0.07800
H2323       H  0.68988088  0.33472178  0.15832157     0.06800
H2324       H  0.53820110  0.24590566  0.12576514     0.01700
H2325       H  0.52571675  0.29024587  0.11824709     0.02200
H2326       H  0.52289604  0.27647626  0.14578987     0.05700
H2327       H  0.56254133  0.34616394  0.06939913     0.04700
H2328       H  0.60106649  0.34349649  0.08635275    -0.01100
H2329       H  0.55730976  0.33799814  0.09763183     0.00400
H2330       H  0.61823817  0.17581639  0.06979824     0.04000
H2331       H  0.58078583  0.17218265  0.05233939     0.06000
H2332       H  0.57538545  0.16524672  0.08080317     0.06800
C2333       C  0.47916608  0.20156980  0.09427928    -0.22800
C2334       C  0.98176867  0.16538455  0.09887505     0.09200
C2335       C  0.99426231  0.14192550  0.08301586     0.09600
C2336       C  0.00557317  0.15551172  0.06321837    -0.17700
C2337       C  0.00415566  0.19192452  0.05885734    -0.28100
C2338       C  0.48940678  0.21503970  0.07429421     0.17900
C2339       C  0.96988007  0.15287019  0.12014976     0.11900
C2340       C  0.99527802  0.10265541  0.08689980    -0.12500
H2341       H  0.01618587  0.13774469  0.05119423     0.12200
C2342       C  0.48247566  0.25359820  0.07002929    -0.23300
H2343       H  0.46853255  0.21932376  0.10631923     0.07800
C2344       C  0.99378004  0.14892814  0.13741840     0.04100
C2345       C  0.98079050  0.13888735  0.15760069    -0.20500
C2346       C  0.94443548  0.13337272  0.16095484    -0.12800
C2347       C  0.92058493  0.13700910  0.14354420     0.12900
C2348       C  0.93367887  0.14674623  0.12332849    -0.23300
C2349       C  0.03282529  0.15580520  0.13462666    -0.06300
H2350       H  0.99903896  0.13578339  0.17092901     0.14400
C2351       C  0.88157163  0.12958501  0.14597471    -0.16500
H2352       H  0.91560381  0.14983375  0.10991310     0.08700
H2353       H  0.49777056  0.26996382  0.08157244     0.06600
H2354       H  0.45384975  0.25918326  0.07225614     0.07800
H2355       H  0.48941785  0.26165669  0.05347853     0.06800
H2356       H  0.96814432  0.09291268  0.09034563     0.01700
H2357       H  0.01269946  0.09654704  0.10075645     0.02200
H2358       H  0.00548754  0.08810620  0.07271689     0.05700
H2359       H  0.54765935  0.15187237  0.14967982     0.04700
H2360       H  0.53701362  0.18323886  0.12900978    -0.01100
H2361       H  0.04404157  0.13746989  0.12253723     0.00400
H2362       H  0.86729519  0.13180486  0.13042628     0.04000
H2363       H  0.86952018  0.14884443  0.15722199     0.06000
H2364       H  0.87764365  0.10234917  0.15214914     0.06800
C2365       C  0.70801140  0.42159758  0.40140674    -0.22800
C2366       C  0.70895571  0.39977631  0.41952430     0.09200
C2367       C  0.69499317  0.36520072  0.41829597     0.09600
C2368       C  0.68155712  0.35271298  0.39862423    -0.17700
C2369       C  0.68068865  0.37452332  0.38044513    -0.28100
C2370       C  0.69387030  0.40950774  0.38189098     0.17900
C2371       C  0.72452732  0.41393660  0.43963451     0.11900
C2372       C  0.69380257  0.34178131  0.43781380    -0.12500
H2373       H  0.67139327  0.32599545  0.39745779     0.12200
C2374       C  0.69418406  0.43385374  0.36273315    -0.23300
H2375       H  0.71860500  0.44816292  0.40255570     0.07800
C2376       C  0.76025587  0.40772392  0.44516641     0.04100
C2377       C  0.77365587  0.42144676  0.46449096    -0.20500
C2378       C  0.75246896  0.44215516  0.47807814    -0.12800
C2379       C  0.71701502  0.44940428  0.47209151     0.12900
C2380       C  0.70343364  0.43497269  0.45298988    -0.23300
C2381       C  0.78441120  0.38736925  0.43043922    -0.06300
H2382       H  0.80090186  0.41625134  0.46896107     0.14400
C2383       C  0.69378963  0.47328908  0.48536618    -0.16500
H2384       H  0.67626521  0.44027018  0.44833620     0.08700
H2385       H  0.70904050  0.42140988  0.34935464     0.06600
H2386       H  0.70702313  0.45953147  0.36650756     0.07800
H2387       H  0.66666661  0.43951011  0.35747830     0.06800
H2388       H  0.67781064  0.35467542  0.45053718     0.01700
H2389       H  0.72096426  0.33710380  0.44399717     0.02200
H2390       H  0.68164898  0.31573664  0.43414834     0.05700
H2391       H  0.81164847  0.38528832  0.43709593     0.04700
H2392       H  0.78602610  0.40098510  0.41469199    -0.01100
H2393       H  0.77411067  0.36023291  0.42794834     0.00400
H2394       H  0.66768695  0.47779589  0.47758159     0.04000
H2395       H  0.70682125  0.49934955  0.48749362     0.06000
H2396       H  0.68876599  0.46137474  0.50131118     0.06800
C2397       C  0.88551938  0.39023311  0.11753235    -0.22800
C2398       C  0.84866842  0.39346109  0.11500905     0.09200
C2399       C  0.82616396  0.38196458  0.13168141     0.09600
C2400       C  0.84105536  0.36822450  0.15057661    -0.17700
C2401       C  0.87795361  0.36617992  0.15352749    -0.28100
C2402       C  0.90049418  0.37707252  0.13665162     0.17900
C2403       C  0.83418932  0.40934183  0.09494159     0.11900
C2404       C  0.78644122  0.38535537  0.12996142    -0.12500
H2405       H  0.82364012  0.36020451  0.16349253     0.12200
C2406       C  0.94019603  0.37423091  0.13847583    -0.23300
H2407       H  0.90264979  0.39849297  0.10453378     0.07800
C2408       C  0.83854001  0.44560116  0.09016099     0.04100
C2409       C  0.82455968  0.45922490  0.07094475    -0.20500
C2410       C  0.80509943  0.43783358  0.05675375    -0.12800
C2411       C  0.79944586  0.40188788  0.06202972     0.12900
C2412       C  0.81481522  0.38794635  0.08075853    -0.23300
C2413       C  0.85689798  0.47020845  0.10560979    -0.06300
H2414       H  0.82846828  0.48685781  0.06705769     0.14400
C2415       C  0.77585965  0.37851776  0.04856902    -0.16500
H2416       H  0.81125031  0.36024119  0.08456260     0.08700
H2417       H  0.95351675  0.38185422  0.12329072     0.06600
H2418       H  0.94775846  0.34656668  0.14224738     0.07800
H2419       H  0.95013721  0.39208783  0.15125582     0.06800
H2420       H  0.77629575  0.36868926  0.11666080     0.01700
H2421       H  0.77915374  0.41335092  0.12696448     0.02200
H2422       H  0.77299216  0.37669294  0.14489720     0.05700
H2423       H  0.85662382  0.49793003  0.09976539     0.04700
H2424       H  0.88492779  0.46217995  0.10775736    -0.01100
H2425       H  0.84322940  0.46952052  0.12136806     0.00400
H2426       H  0.77229622  0.35207244  0.05597550     0.04000
H2427       H  0.78742891  0.37441152  0.03244176     0.06000
H2428       H  0.74827647  0.89193027  0.04786750     0.06800
C2429       C  0.97089931  0.25614578  0.39729649    -0.22800
C2430       C  0.97366224  0.28154827  0.41358987     0.09200
C2431       C  0.96612536  0.31726300  0.40905499     0.09600
C2432       C  0.95534179  0.32669777  0.38832172    -0.17700
C2433       C  0.95169937  0.30125324  0.37207158    -0.28100
C2434       C  0.96020160  0.26553976  0.37649133     0.17900
C2435       C  0.98445839  0.27028152  0.43533888     0.11900
C2436       C  0.96857263  0.34526947  0.42620644    -0.12500
H2437       H  0.94889261  0.35403918  0.38489028     0.12200
C2438       C  0.95958009  0.23691793  0.35965813    -0.23300
H2439       H  0.97739263  0.22883765  0.40082446     0.07800
C2440       C  0.96074126  0.25260492  0.44912529     0.04100
C2441       C  0.97210010  0.24295272  0.46974283    -0.20500
C2442       C  0.50647294  0.25101083  0.47682782    -0.12800
C2443       C  0.52973556  0.26972866  0.46319157     0.12900
C2444       C  0.51861210  0.27845576  0.44242767    -0.23300
C2445       C  0.92348688  0.24413263  0.44212401    -0.06300
H2446       H  0.95445101  0.22840081  0.48020956     0.14400
C2447       C  0.56600452  0.28160781  0.47020171    -0.16500
H2448       H  0.53660191  0.29220904  0.43176662     0.08700
H2449       H  0.93960149  0.21665371  0.36403679     0.06600
H2450       H  0.48586470  0.22417392  0.35895642     0.07800
H2451       H  0.95342893  0.24688207  0.34337495     0.06800
H2452       H  0.99619789  0.34728911  0.43218932     0.01700
H2453       H  0.95078293  0.33840810  0.43974326     0.02200
H2454       H  0.96067656  0.37165746  0.42004601     0.05700
H2455       H  0.90826346  0.23090237  0.45506270     0.04700
H2456       H  0.92400740  0.22619256  0.42803605    -0.01100
H2457       H  0.90943979  0.26888475  0.43774213     0.00400
H2458       H  0.58644025  0.26849072  0.46019119     0.04000
H2459       H  0.57130475  0.27585478  0.48733404     0.06000
H2460       H  0.56828222  0.31065157  0.46810997     0.06800
C2461       C  0.93796006  0.81243407  0.35099246     0.79900
N2462       N  0.95250903  0.84127775  0.34159319    -0.78400
C2463       C  0.93910806  0.85396766  0.32293688     0.82300
N2464       N  0.91068206  0.83811611  0.31377640    -0.78400
C2465       C  0.89580340  0.80942478  0.32314996     0.82400
N2466       N  0.90935625  0.79665366  0.34182018    -0.80100
C2467       C  0.89176791  0.85437777  0.17491309     0.79900
N2468       N  0.87366494  0.82912317  0.18589499    -0.78400
C2469       C  0.88056183  0.82313516  0.20696001     0.82300
N2470       N  0.90494127  0.84322961  0.21728440    -0.78400
C2471       C  0.92405722  0.86768118  0.20641467     0.82400
N2472       N  0.91710983  0.87357168  0.18527908    -0.80100
C2473       C  0.66773742  0.85789937  0.35999160     0.79900
N2474       N  0.68609169  0.83202110  0.34970418    -0.78400
C2475       C  0.67886220  0.82434314  0.32883059     0.82300
N2476       N  0.65387199  0.84324357  0.31816971    -0.78400
C2477       C  0.63445600  0.86807151  0.32854016     0.82400
N2478       N  0.64181038  0.87572318  0.34936205    -0.80100
C2479       C  0.93338621  0.62272416  0.18205082     0.79900
N2480       N  0.90544476  0.63880520  0.19174022    -0.78400
C2481       C  0.89400326  0.62748181  0.21123564     0.82300
N2482       N  0.91040977  0.59990190  0.22094212    -0.78400
C2483       C  0.93850257  0.58403742  0.21144534     0.82400
N2484       N  0.95000828  0.59555725  0.19207871    -0.80100
N2485       N  0.48623206  0.92951418  0.22625370    -0.06400
N2486       N  0.47716024  0.90693202  0.21096665    -0.58600
N2487       N  0.96451469  0.51057941  0.24207218    -0.06100
N2488       N  0.94268820  0.53742275  0.23932504    -0.60700
N2489       N  0.48873224  0.51019462  0.22689951    -0.05700
N2490       N  0.48396843  0.53678112  0.21352074    -0.58500
N2491       N  0.96267586  0.92886584  0.24182786    -0.05400
N2492       N  0.93761623  0.90554660  0.23768746    -0.61000
C2493       C  0.94702462  0.89182042  0.21852000     0.95700
C2494       C  0.95528423  0.55353133  0.22156336     0.95500
N2495       N  0.48743075  0.50929392  0.30780444    -0.06600
N2496       N  0.47901956  0.53229794  0.32294081    -0.59100
N2497       N  0.96394193  0.92796638  0.29247247    -0.04700
N2498       N  0.94204634  0.90119492  0.29529438    -0.60400
N2499       N  0.48856173  0.92832302  0.30752619    -0.06700
N2500       N  0.48389812  0.90186067  0.32095274    -0.59400
N2501       N  0.96383642  0.50999374  0.29239391    -0.04400
N2502       N  0.93930276  0.53388899  0.29639270    -0.60500
Mn2503     Mn  0.96252479  0.96899116  0.26738246     1.18400
C2504       C  0.94937318  0.54792282  0.31536836     0.97800
C2505       C  0.95485857  0.88512983  0.31306900     0.98500
N2506       N  0.57267329  0.50782330  0.22605877    -0.06700
N2507       N  0.58196616  0.53042880  0.21088128    -0.63000
N2508       N  0.59444085  0.92723084  0.24230584    -0.05500
N2509       N  0.61702963  0.90116808  0.23907971    -0.63700
N2510       N  0.57016171  0.92755682  0.22709702    -0.06200
N2511       N  0.57584946  0.90192555  0.21313960    -0.63300
N2512       N  0.59611865  0.50808419  0.24170810    -0.05100
N2513       N  0.62133348  0.53125261  0.23777473    -0.63900
Mn2514     Mn  0.52940866  0.96886368  0.22614787     1.10700
C2515       C  0.61206946  0.54516821  0.21864321     0.99000
C2516       C  0.60504380  0.88564760  0.22090251     0.99100
N2517       N  0.57220118  0.92910606  0.30849104    -0.06200
N2518       N  0.58119423  0.90657277  0.32379373    -0.61600
N2519       N  0.59573833  0.50911997  0.29231203    -0.05500
N2520       N  0.61887403  0.53471415  0.29573603    -0.58300
N2521       N  0.57127245  0.50928782  0.30732596    -0.06800
N2522       N  0.57726102  0.53473945  0.32132115    -0.61100
N2523       N  0.59555918  0.92826643  0.29287830    -0.05800
N2524       N  0.62042812  0.90475384  0.29696632    -0.58300
Mn2525     Mn  0.52958979  0.96906690  0.30862566     1.20200
Mn2526     Mn  0.59621605  0.96837128  0.26751941     1.10100
Cl2527     Cl  0.52944666  0.96886356  0.26741133    -0.86300
C2528       C  0.61100328  0.89120989  0.31614765     0.96000
C2529       C  0.60689893  0.55039518  0.31385296     0.95800
C2530       C  0.63187053  0.82045939  0.17974862     0.79900
N2531       N  0.61375275  0.84653850  0.18995935    -0.78400
C2532       C  0.62317896  0.85639637  0.21016250     0.82300
N2533       N  0.65046984  0.83988791  0.22018621    -0.78400
C2534       C  0.66800685  0.81326520  0.21026309     0.82400
N2535       N  0.65871952  0.80363306  0.19004693    -0.80100
C2536       C  0.89329230  0.58043297  0.35946752     0.79900
N2537       N  0.87482720  0.60657528  0.34945001    -0.78400
C2538       C  0.88188634  0.61474214  0.32863437     0.82300
N2539       N  0.90673744  0.59606340  0.31776613    -0.78400
C2540       C  0.92627634  0.57106759  0.32790204     0.82400
N2541       N  0.91921271  0.56304762  0.34866001    -0.80100
C2542       C  0.62774542  0.61931557  0.35390336     0.79900
N2543       N  0.65496260  0.63650197  0.34416512    -0.78400
C2544       C  0.66710019  0.62524108  0.32478828     0.82300
N2545       N  0.65171889  0.59703122  0.31506300    -0.78400
C2546       C  0.62413728  0.58026465  0.32451324     0.82400
N2547       N  0.61228663  0.59141618  0.34390526    -0.80100
C2548       C  0.66835322  0.58076628  0.17532855     0.79900
N2549       N  0.64260066  0.56226153  0.18563238    -0.78400
C2550       C  0.63550124  0.56876882  0.20663334     0.82300
N2551       N  0.65483896  0.59321804  0.21745701    -0.78400
C2552       C  0.67963470  0.61272849  0.20713482     0.82400
N2553       N  0.68677506  0.60601139  0.18619014    -0.80100
N2554       N  0.82102372  0.75987881  0.30820473    -0.06400
N2555       N  0.84790520  0.76451615  0.32147563    -0.58600
N2556       N  0.73953005  0.78535455  0.29343478    -0.06100
N2557       N  0.71615686  0.81035754  0.29747991    -0.60700
N2558       N  0.74008363  0.76197528  0.30905056    -0.05700
N2559       N  0.71751314  0.77111601  0.32430429    -0.58500
N2560       N  0.82103932  0.78419542  0.29310675    -0.05400
N2561       N  0.84804238  0.80589996  0.29576816    -0.61000
C2562       C  0.86448105  0.79323233  0.31346994     0.95700
C2563       C  0.70243829  0.80103722  0.31664252     0.95500
N2564       N  0.73852254  0.75992385  0.22774300    -0.06600
N2565       N  0.71312596  0.76591297  0.21363785    -0.59100
N2566       N  0.81987905  0.78506141  0.24258712    -0.04700
N2567       N  0.84350134  0.80980914  0.23850413    -0.60400
N2568       N  0.81920210  0.76154428  0.22704140    -0.06700
N2569       N  0.84194267  0.77024669  0.21182318    -0.59400
N2570       N  0.73847223  0.78433405  0.24281588    -0.04400
N2571       N  0.71277879  0.80730869  0.23936398    -0.60500
Mn2572     Mn  0.77969814  0.78565747  0.26800713     1.18400
C2573       C  0.69725406  0.79538855  0.22116745     0.97800
C2574       C  0.85724791  0.80008608  0.21941146     0.98500
N2575       N  0.73891676  0.67799886  0.30839024    -0.06700
N2576       N  0.71301119  0.67230486  0.32216413    -0.63000
N2577       N  0.82054000  0.65322616  0.29342284    -0.05500
N2578       N  0.84424795  0.62851664  0.29739480    -0.63700
N2579       N  0.81981908  0.67650567  0.30909762    -0.06200
N2580       N  0.84265037  0.66761744  0.32431978    -0.63300
N2581       N  0.73903948  0.65359141  0.29331396    -0.05100
N2582       N  0.71304251  0.63087814  0.29646538    -0.63900
Mn2583     Mn  0.77988623  0.71912047  0.30933337     1.10700
C2584       C  0.69707586  0.64292769  0.31445492     0.99000
C2585       C  0.85800275  0.63791716  0.31657110     0.99100
N2586       N  0.82074331  0.67817522  0.22762540    -0.06200
N2587       N  0.84676304  0.67309489  0.21385148    -0.61600
N2588       N  0.73969931  0.65243941  0.24273533    -0.05500
N2589       N  0.71663234  0.62713705  0.23865553    -0.58300
N2590       N  0.73988619  0.67586137  0.22714325    -0.06800
N2591       N  0.71737684  0.66645488  0.21186623    -0.61100
N2592       N  0.82125952  0.65391000  0.24275212    -0.05800
N2593       N  0.84784281  0.63183942  0.23961155    -0.58300
Mn2594     Mn  0.77949034  0.71886687  0.22679105     1.20200
Mn2595     Mn  0.78016240  0.65241521  0.26806394     1.10100
Cl2596     Cl  0.77972937  0.71901501  0.26804640    -0.86300
C2597       C  0.86345624  0.64419547  0.22157272     0.96000
C2598       C  0.70270884  0.63633572  0.21949524     0.95800
C2599       C  0.76870775  0.95366657  0.49848737     0.02000
C2600       C  0.79730578  0.97789335  0.49807273     0.01900
C2601       C  0.81211592  0.98971324  0.51745793    -0.18600
C2602       C  0.79945543  0.97776104  0.53727872     0.02000
C2603       C  0.76992051  0.95470632  0.53779020     0.01900
C2604       C  0.75576554  0.94199669  0.51840383    -0.18600
H2605       H  0.73433221  0.92297263  0.51885628     0.04000
H2606       H  0.83400455  0.51069903  0.51664854     0.04000
C2607       C  0.54930128  0.72840345  0.03694631     0.02000
C2608       C  0.51970258  0.70541130  0.03775530     0.01900
C2609       C  0.00478838  0.69319476  0.01853778    -0.18600
C2610       C  0.51616783  0.70603733  0.99854878     0.02000
C2611       C  0.54445206  0.73055707  0.99780256     0.01900
C2612       C  0.56115767  0.74066501  0.01699269    -0.18600
H2613       H  0.58333107  0.75885294  0.01639742     0.04000
H2614       H  0.98272530  0.67487407  0.01908814     0.04000
C2615       C  0.52026112  0.73690403  0.49735304     0.02000
C2616       C  0.54421302  0.70813483  0.49779898     0.01900
C2617       C  0.55500809  0.69451081  0.51770171    -0.18600
C2618       C  0.54319503  0.70954572  0.53705362     0.02000
C2619       C  0.51855478  0.73775601  0.53647357     0.01900
C2620       C  0.50725007  0.75093697  0.51659130    -0.18600
H2621       H  0.98805449  0.77250187  0.51605146     0.04000
H2622       H  0.57252922  0.67185183  0.51821798     0.04000
C2623       C  0.76718641  0.98253350  0.03722929     0.02000
C2624       C  0.79098071  0.95354524  0.03690942     0.01900
C2625       C  0.80225920  0.93996399  0.01705454    -0.18600
C2626       C  0.78973987  0.95403328  0.99764878     0.02000
C2627       C  0.76679186  0.98353275  0.99801032     0.01900
C2628       C  0.75507748  0.99681306  0.01773472    -0.18600
H2629       H  0.73602369  0.51931721  0.01818983     0.04000
H2630       H  0.82099853  0.91827883  0.01666965     0.04000
C2631       C  0.87145869  0.87713668  0.85113561     0.79900
N2632       N  0.89969629  0.89311772  0.84177391    -0.78400
C2633       C  0.91280526  0.88063571  0.82293479     0.82300
N2634       N  0.89777068  0.85201562  0.81349881    -0.78400
C2635       C  0.86959268  0.83601322  0.82276690     0.82400
N2636       N  0.85669662  0.84843435  0.84160883    -0.80100
C2637       C  0.91594189  0.60922167  0.86051758     0.79900
N2638       N  0.89007728  0.62721950  0.84993770    -0.78400
C2639       C  0.88265469  0.61953820  0.82910054     0.82300
N2640       N  0.90174470  0.59443239  0.81876130    -0.78400
C2641       C  0.92645847  0.57523869  0.82943152     0.82400
N2642       N  0.93379930  0.58293307  0.85026243    -0.80100
C2643       C  0.68214111  0.56972119  0.85386703     0.79900
N2644       N  0.65387923  0.55363393  0.84450201    -0.78400
C2645       C  0.64149461  0.56514424  0.82525438     0.82300
N2646       N  0.65717024  0.59304357  0.81545400    -0.78400
C2647       C  0.68530273  0.60925522  0.82476125     0.82400
N2648       N  0.69760226  0.59768179  0.84398959    -0.80100
C2649       C  0.64354078  0.83482372  0.86120194     0.79900
N2650       N  0.62494913  0.86026815  0.85058640    -0.78400
C2651       C  0.63103555  0.86669481  0.82948406     0.82300
N2652       N  0.65523203  0.84698931  0.81879422    -0.78400
C2653       C  0.67481506  0.82240848  0.82928658     0.82400
N2654       N  0.66849220  0.81589429  0.85039365    -0.80100
C2655       C  0.63525713  0.61259354  0.67696382     0.79900
N2656       N  0.66193321  0.63043631  0.68692270    -0.78400
C2657       C  0.67126972  0.62212359  0.70736578     0.82300
N2658       N  0.65316745  0.59663825  0.71800523    -0.78400
C2659       C  0.62762678  0.57768624  0.70787869     0.82400
N2660       N  0.61843075  0.58596033  0.68741343    -0.80100
C2661       C  0.87858274  0.56949167  0.68105522     0.79900
N2662       N  0.86120325  0.59642081  0.69092978    -0.78400
C2663       C  0.87093845  0.60675625  0.71098767     0.82300
N2664       N  0.89797021  0.59006410  0.72115532    -0.78400
C2665       C  0.91479493  0.56265785  0.71157788     0.82400
N2666       N  0.90499750  0.55236221  0.69158514    -0.80100
N2667       N  0.82269918  0.75984198  0.72669414    -0.06400
N2668       N  0.83237739  0.78212000  0.71142564    -0.58600
N2669       N  0.84355911  0.67874393  0.74259199    -0.06100
N2670       N  0.86576277  0.65232644  0.73948443    -0.60700
N2671       N  0.81925117  0.67924284  0.72739915    -0.05700
N2672       N  0.82454987  0.65335019  0.71355880    -0.58500
N2673       N  0.84617153  0.75988733  0.74232635    -0.05400
N2674       N  0.87178876  0.78259356  0.73829045    -0.61000
C2675       C  0.86274964  0.79644678  0.71910265     0.95700
C2676       C  0.85352493  0.63675464  0.72139098     0.95500
N2677       N  0.82109466  0.68089867  0.80875006    -0.06600
N2678       N  0.82980090  0.65839883  0.82412044    -0.59100
N2679       N  0.84475709  0.76125886  0.79275044    -0.04700
N2680       N  0.86660703  0.78816905  0.79537851    -0.60400
N2681       N  0.82024117  0.76150093  0.80773865    -0.06700
N2682       N  0.82487679  0.78835878  0.82090584    -0.59400
N2683       N  0.84455843  0.67985764  0.79319723    -0.04400
N2684       N  0.86923732  0.65620255  0.79741240    -0.60500
Mn2685     Mn  0.84568346  0.71988083  0.76774229     1.18400
C2686       C  0.85955938  0.64283709  0.81660305     0.97800
C2687       C  0.85377737  0.80471329  0.81297693     0.98500
N2688       N  0.73511394  0.68219075  0.72677366    -0.06700
N2689       N  0.72539973  0.65971573  0.71157189    -0.63000
N2690       N  0.71430319  0.76322564  0.74277900    -0.05500
N2691       N  0.69251151  0.79007404  0.73994865    -0.63700
N2692       N  0.73862045  0.76282016  0.72765741    -0.06200
N2693       N  0.73379296  0.78925522  0.71416762    -0.63300
N2694       N  0.71185170  0.68209686  0.74246362    -0.05100
N2695       N  0.68639254  0.65916052  0.73854441    -0.63900
Mn2696     Mn  0.77887702  0.72102415  0.72645501     1.10700
C2697       C  0.69527988  0.64520377  0.71938553     0.99000
C2698       C  0.70506356  0.80601314  0.72211307     0.99100
N2699       N  0.73666655  0.76133816  0.80885916    -0.06200
N2700       N  0.72781246  0.78361685  0.82432006    -0.61600
N2701       N  0.71282693  0.68102699  0.79301746    -0.05500
N2702       N  0.69000767  0.65513290  0.79625196    -0.58300
N2703       N  0.73740472  0.68087454  0.80803477    -0.06800
N2704       N  0.73183500  0.65510434  0.82183486    -0.61100
N2705       N  0.71310432  0.76227223  0.79329925    -0.05800
N2706       N  0.68819730  0.78563150  0.79759289    -0.58300
Mn2707     Mn  0.77892219  0.72113640  0.80893920     1.20200
Mn2708     Mn  0.71213318  0.72215929  0.76784886     1.10100
Cl2709     Cl  0.77890256  0.72102352  0.76772647    -0.86300
C2710       C  0.69781208  0.79890320  0.81685896     0.96000
C2711       C  0.70231150  0.63927673  0.81424751     0.95800
C2712       C  0.91831729  0.83158270  0.67524203     0.79900
N2713       N  0.93674823  0.85728738  0.68574762    -0.78400
C2714       C  0.93026007  0.86394345  0.70683619     0.82300
N2715       N  0.90586258  0.84431402  0.71745227    -0.78400
C2716       C  0.88646910  0.81958516  0.70692962     0.82400
N2717       N  0.89322031  0.81280437  0.68594251    -0.80100
C2718       C  0.68333859  0.87576253  0.68283691     0.79900
N2719       N  0.65581218  0.89214276  0.69277094    -0.78400
C2720       C  0.64435694  0.88056608  0.71219649     0.82300
N2721       N  0.66052407  0.85265114  0.72168221    -0.78400
C2722       C  0.68839186  0.83664536  0.71203284     0.82400
N2723       N  0.69979444  0.84825356  0.69264576    -0.80100
N2724       N  0.98790371  0.92990479  0.80852346    -0.06400
N2725       N  0.96075342  0.92542139  0.82152331    -0.58600
N2726       N  0.56967379  0.90496894  0.79412397    -0.06100
N2727       N  0.59343853  0.88030099  0.79812391    -0.60700
N2728       N  0.56884023  0.92825297  0.80979760    -0.05700
N2729       N  0.59164705  0.91939516  0.82503811    -0.58500
N2730       N  0.98806179  0.90556565  0.79340172    -0.05400
N2731       N  0.96086187  0.88402538  0.79579278    -0.61000
C2732       C  0.94415813  0.89680634  0.81334905     0.95700
C2733       C  0.60712029  0.88973232  0.81731470     0.95500
N2734       N  0.57068052  0.93066291  0.72847038    -0.06600
N2735       N  0.59696018  0.92595310  0.71483717    -0.59100
N2736       N  0.98973658  0.90397127  0.74281881    -0.04700
N2737       N  0.96706967  0.87843671  0.73846202    -0.60400
N2738       N  0.99005193  0.92744536  0.72726794    -0.06700
N2739       N  0.96803582  0.91787186  0.71174276    -0.59400
N2740       N  0.57115090  0.90621885  0.74349747    -0.04400
N2741       N  0.59795895  0.88439948  0.74043187    -0.60500
Mn2742     Mn  0.52965176  0.90420887  0.76853802     1.18400
C2743       C  0.61377218  0.89711746  0.72255253     0.97800
C2744       C  0.95355387  0.88751435  0.71916314     0.98500
N2745       N  0.56946388  0.51248993  0.80909210    -0.06700
N2746       N  0.59544257  0.51832980  0.82285092    -0.63000
N2747       N  0.98731097  0.53662898  0.79409718    -0.05500
N2748       N  0.96362619  0.56134587  0.79808235    -0.63700
N2749       N  0.98817931  0.51335099  0.80974923    -0.06200
N2750       N  0.96547410  0.52226582  0.82498031    -0.63300
N2751       N  0.56915471  0.53684041  0.79400553    -0.05100
N2752       N  0.59507388  0.55967630  0.79712068    -0.63900
Mn2753     Mn  0.52877394  0.97082913  0.81005732     1.10700
C2754       C  0.61117590  0.54774828  0.81511600     0.99000
C2755       C  0.94999604  0.55193664  0.81724329     0.99100
N2756       N  0.98706727  0.51118204  0.72847227    -0.06200
N2757       N  0.96114981  0.51641225  0.71460161    -0.61600
N2758       N  0.56842409  0.53761275  0.74349183    -0.05500
N2759       N  0.59144435  0.56293093  0.73946837    -0.58300
N2760       N  0.56822695  0.51420943  0.72787862    -0.06800
N2761       N  0.59068400  0.52361048  0.71265418    -0.61100
N2762       N  0.98655954  0.53548754  0.74360189    -0.05800
N2763       N  0.96008175  0.55765149  0.74041117    -0.58300
Mn2764     Mn  0.52892661  0.97087176  0.72752259     1.20200
Mn2765     Mn  0.52806564  0.53757683  0.76873000     1.10100
Cl2766     Cl  0.52884204  0.97081092  0.76877974    -0.86300
C2767       C  0.94450847  0.54532583  0.72233659     0.96000
C2768       C  0.60535792  0.55369859  0.72034325     0.95800
C2769       C  0.71213485  0.51348118  0.90113081    -0.22800
C2770       C  0.71659261  0.53940038  0.91696313     0.09200
C2771       C  0.71065878  0.57520262  0.91189512     0.09600
C2772       C  0.69989593  0.58424666  0.89103857    -0.17700
C2773       C  0.69493463  0.55828185  0.87517473    -0.28100
C2774       C  0.70179494  0.52242199  0.88020088     0.17900
C2775       C  0.72821900  0.52820511  0.93860115     0.11900
C2776       C  0.71512812  0.60369002  0.92857318    -0.12500
H2777       H  0.69474517  0.61170171  0.88718075     0.12200
C2778       C  0.70009753  0.49303044  0.86387309    -0.23300
H2779       H  0.71737994  0.48606182  0.90507368     0.07800
C2780       C  0.70646803  0.00981733  0.95220871     0.04100
C2781       C  0.71879917  0.99756906  0.97212274    -0.20500
C2782       C  0.75460836  0.00069594  0.97787897    -0.12800
C2783       C  0.77674498  0.51954288  0.96395664     0.12900
C2784       C  0.76398550  0.53179170  0.94417471    -0.23300
C2785       C  0.66783898  0.00607721  0.94658390    -0.06300
H2786       H  0.70067369  0.98449906  0.98300023     0.14400
C2787       C  0.81489413  0.52701588  0.96946442    -0.16500
H2788       H  0.78205502  0.54429330  0.93300760     0.08700
H2789       H  0.67896597  0.47406269  0.86840024     0.06600
H2790       H  0.72585288  0.47885808  0.86358273     0.07800
H2791       H  0.69505802  0.50237925  0.84732955     0.06800
H2792       H  0.74292114  0.60408258  0.93440869     0.01700
H2793       H  0.69715075  0.59852169  0.94229479     0.02200
H2794       H  0.70883124  0.63025278  0.92202286     0.05700
H2795       H  0.65256392  0.99384831  0.95985892     0.04700
H2796       H  0.66477852  0.98915146  0.93215278    -0.01100
H2797       H  0.65636968  0.03254359  0.94327173     0.00400
H2798       H  0.83244401  0.51433758  0.95744015     0.04000
H2799       H  0.82241043  0.51756655  0.98567324     0.06000
H2800       H  0.81952265  0.55597837  0.96907502     0.06800
C2801       C  0.78913865  0.91115216  0.94238258    -0.22800
C2802       C  0.82410500  0.91726180  0.93586294     0.09200
C2803       C  0.84839401  0.93269356  0.95034431     0.09600
C2804       C  0.83683524  0.94270228  0.97084926    -0.17700
C2805       C  0.80144043  0.93817844  0.97704171    -0.28100
C2806       C  0.77760278  0.92091435  0.96292784     0.17900
C2807       C  0.83502414  0.90666431  0.91395770     0.11900
C2808       C  0.88646245  0.93865881  0.94414206    -0.12500
H2809       H  0.85514799  0.95541068  0.98182660     0.12200
C2810       C  0.74018430  0.91170011  0.96915143    -0.23300
H2811       H  0.77075613  0.89858458  0.93137444     0.07800
C2812       C  0.84105524  0.87093466  0.90868568     0.01300
C2813       C  0.85255928  0.86225396  0.88797264    -0.20500
C2814       C  0.85872874  0.88847844  0.87248654    -0.12800
C2815       C  0.85233092  0.92429887  0.87771154     0.12900
C2816       C  0.84027869  0.93290232  0.89839081    -0.23300
C2817       C  0.83615632  0.84205090  0.92504487    -0.06300
H2818       H  0.85748129  0.83481228  0.88396574     0.14400
C2819       C  0.85719212  0.95337401  0.86146870    -0.16500
H2820       H  0.83523626  0.96025712  0.90255902     0.08700
H2821       H  0.73638295  0.88268448  0.96784040     0.06600
H2822       H  0.72131066  0.92497384  0.95810180     0.07800
H2823       H  0.73371452  0.91945028  0.98584387     0.06800
H2824       H  0.88788164  0.95707372  0.93031949     0.01700
H2825       H  0.89886509  0.91310865  0.93965330     0.02200
H2826       H  0.90202506  0.95031452  0.95753327     0.05700
H2827       H  0.84297475  0.81567891  0.91840172     0.04700
H2828       H  0.80814135  0.84121471  0.93035909    -0.01100
H2829       H  0.85352216  0.84707207  0.93912520     0.00400
H2830       H  0.84905438  0.97946404  0.86797761     0.04000
H2831       H  0.84082985  0.94784700  0.84702128     0.06000
H2832       H  0.88546745  0.95536698  0.85682652     0.06800
C2833       C  0.60360281  0.68097718  0.58291395    -0.22800
C2834       C  0.57939324  0.66445425  0.59661081     0.09200
C2835       C  0.54321883  0.66320948  0.59095727     0.09600
C2836       C  0.53216036  0.67802926  0.57140580    -0.17700
C2837       C  0.55636660  0.69469791  0.55763585    -0.28100
C2838       C  0.59259615  0.69639018  0.56357004     0.17900
C2839       C  0.59255883  0.65003628  0.61721355     0.11900
C2840       C  0.51638795  0.64634820  0.60557293    -0.12500
H2841       H  0.50449599  0.67662334  0.56681105     0.12200
C2842       C  0.62026744  0.71506086  0.55033385    -0.23300
H2843       H  0.63127660  0.68232798  0.58753963     0.07800
C2844       C  0.60651755  0.61554269  0.61880979     0.04100
C2845       C  0.62022900  0.60382764  0.63856040    -0.20500
C2846       C  0.62043762  0.62600190  0.65661078    -0.12800
C2847       C  0.60525972  0.66019449  0.65510862     0.12900
C2848       C  0.59199978  0.67188494  0.63532493    -0.23300
C2849       C  0.60700251  0.59127714  0.59965782    -0.06300
H2850       H  0.63118522  0.57744077  0.63987852     0.14400
C2851       C  0.60131078  0.68468518  0.67407402    -0.16500
H2852       H  0.58080195  0.69819904  0.63404032     0.08700
H2853       H  0.64071370  0.69580333  0.54515357     0.06600
H2854       H  0.63314784  0.73586553  0.56021436     0.07800
H2855       H  0.60936149  0.72810608  0.53586893     0.06800
H2856       H  0.51616262  0.66027877  0.62125618     0.01700
H2857       H  0.52325927  0.61816150  0.60819473     0.02200
H2858       H  0.48924052  0.64759395  0.59870502     0.05700
H2859       H  0.61870202  0.56516573  0.60365891     0.04700
H2860       H  0.62296802  0.60326852  0.58661714    -0.01100
H2861       H  0.57955769  0.58691525  0.59380062     0.00400
H2862       H  0.61684275  0.70914586  0.67124825     0.04000
H2863       H  0.61004596  0.67289937  0.68944588     0.06000
H2864       H  0.57297015  0.69189337  0.67597108     0.06800
C2865       C  0.94510987  0.82774572  0.61633495    -0.22800
C2866       C  0.95714638  0.79273572  0.61481093     0.09200
C2867       C  0.95591388  0.77063900  0.63301796     0.09600
C2868       C  0.94207298  0.78390788  0.65229199    -0.17700
C2869       C  0.93041336  0.81905413  0.65397967    -0.28100
C2870       C  0.93194446  0.84127625  0.63580137     0.17900
C2871       C  0.97202709  0.77990310  0.59422387     0.11900
C2872       C  0.97011968  0.73340265  0.63225430    -0.12500
H2873       H  0.94130676  0.76704194  0.66634494     0.12200
C2874       C  0.91906677  0.87889275  0.63680979    -0.23300
H2875       H  0.94628143  0.84455449  0.60227475     0.07800
C2876       C  0.95127818  0.76079895  0.57935343     0.04100
C2877       C  0.96718540  0.74752788  0.56065612    -0.20500
C2878       C  0.50332892  0.75331909  0.55632748    -0.12800
C2879       C  0.52359491  0.77397421  0.57077855     0.12900
C2880       C  0.50792172  0.78620003  0.58979168    -0.23300
C2881       C  0.91233178  0.75482006  0.58310349    -0.06300
H2882       H  0.95154486  0.73223095  0.54938517     0.14400
C2883       C  0.56135217  0.78448746  0.56640018    -0.16500
H2884       H  0.52358359  0.80141385  0.60109982     0.08700
H2885       H  0.92113016  0.89222265  0.62098320     0.06600
H2886       H  0.93516990  0.89411308  0.64851832     0.07800
H2887       H  0.89086302  0.87938191  0.64181874     0.06800
H2888       H  0.99860954  0.73385728  0.62787329     0.01700
H2889       H  0.95543181  0.71762388  0.62015711     0.02200
H2890       H  0.96757604  0.71990846  0.64799941     0.05700
H2891       H  0.89997098  0.73969555  0.56976670     0.04700
H2892       H  0.89859105  0.78067112  0.58437402    -0.01100
H2893       H  0.90823799  0.73979481  0.59816770     0.00400
H2894       H  0.56361742  0.81373319  0.56678764     0.04000
H2895       H  0.57075260  0.77560143  0.55047093     0.06000
H2896       H  0.57892380  0.77318175  0.57894673     0.06800
C2897       C  0.57197782  0.79765362  0.95550767    -0.22800
C2898       C  0.58815845  0.77591068  0.94019493     0.09200
C2899       C  0.58877409  0.73897309  0.94343629     0.09600
C2900       C  0.57355150  0.72469940  0.96210132    -0.17700
C2901       C  0.55727848  0.74648228  0.97743667    -0.28100
C2902       C  0.55607354  0.78346950  0.97389717     0.17900
C2903       C  0.60253705  0.79237041  0.92037945     0.11900
C2904       C  0.60510517  0.71463108  0.92709630    -0.12500
H2905       H  0.57478155  0.69647045  0.96490088     0.12200
C2906       C  0.53764525  0.80880594  0.98887783    -0.23300
H2907       H  0.57121175  0.82596693  0.95288219     0.07800
C2908       C  0.57972142  0.80539743  0.90427942     0.04100
C2909       C  0.59417573  0.82041308  0.88568962    -0.20500
C2910       C  0.63101098  0.82268725  0.88258539    -0.12800
C2911       C  0.65392611  0.81045432  0.89905891     0.12900
C2912       C  0.63932647  0.79526088  0.91767116    -0.23300
C2913       C  0.54004799  0.80241254  0.90636411    -0.06300
H2914       H  0.57641868  0.82931744  0.87311719     0.14400
C2915       C  0.69365904  0.81385491  0.89797539    -0.16500
H2916       H  0.65678335  0.78580455  0.93025945     0.08700
H2917       H  0.51714766  0.82372217  0.97983785     0.06600
H2918       H  0.55721965  0.82777472  0.99554594     0.07800
H2919       H  0.52413332  0.79558324  0.00242462     0.06800
H2920       H  0.63368074  0.72077097  0.92527662     0.01700
H2921       H  0.59159231  0.71802974  0.91138638     0.02200
H2922       H  0.60267558  0.68647992  0.93190170     0.05700
H2923       H  0.52614434  0.81269227  0.89193565     0.04700
H2924       H  0.53078729  0.81786044  0.92040832    -0.01100
H2925       H  0.53247487  0.77427533  0.90846110     0.00400
H2926       H  0.70336917  0.82814820  0.91240771     0.04000
H2927       H  0.70287280  0.82893480  0.88383927     0.06000
H2928       H  0.70583300  0.78715371  0.89764299     0.06800
C2929       C  0.96027535  0.69721142  0.94794360    -0.22800
C2930       C  0.96775178  0.66231765  0.94185907     0.09200
C2931       C  0.99075524  0.64170757  0.95461479     0.09600
C2932       C  0.50618861  0.65719535  0.97283093    -0.17700
C2933       C  0.99931685  0.69178491  0.97890313    -0.28100
C2934       C  0.97542016  0.71210102  0.96647559     0.17900
C2935       C  0.95339422  0.64868127  0.92126401     0.11900
C2936       C  0.49923376  0.60450997  0.94858761    -0.12500
H2937       H  0.52431997  0.64167952  0.98250105     0.12200
C2938       C  0.96483535  0.74917194  0.97246742    -0.23300
H2939       H  0.94259067  0.71297082  0.93811410     0.07800
C2940       C  0.91796198  0.63726910  0.91895829     0.04100
C2941       C  0.90627072  0.62435081  0.89895195    -0.20500
C2942       C  0.92924687  0.62280239  0.88127861    -0.12800
C2943       C  0.96436814  0.63562331  0.88350334     0.12900
C2944       C  0.97605033  0.64773808  0.90354393    -0.23300
C2945       C  0.89273885  0.63840641  0.93762162    -0.06300
H2946       H  0.87921549  0.61523960  0.89711404     0.14400
C2947       C  0.98994447  0.63866798  0.86501193    -0.16500
H2948       H  0.00299367  0.65729437  0.90528067     0.08700
H2949       H  0.93560701  0.75055968  0.97422537     0.06600
H2950       H  0.97318689  0.76770715  0.95963394     0.07800
H2951       H  0.97667431  0.75802011  0.98782517     0.06800
H2952       H  0.51233648  0.60352685  0.93267752     0.01700
H2953       H  0.97379879  0.58843698  0.94831008     0.02200
H2954       H  0.51729407  0.59206534  0.96047564     0.05700
H2955       H  0.86617104  0.62809092  0.93317332     0.04700
H2956       H  0.88952543  0.66606800  0.94321854    -0.01100
H2957       H  0.90327668  0.62207088  0.95098087     0.00400
H2958       H  0.99938957  0.66638986  0.86379516     0.04000
H2959       H  0.97819061  0.63187708  0.84926812     0.06000
H2960       H  0.51328981  0.62082977  0.86813800     0.06800
C2961       C  0.84121050  0.98186131  0.59290919    -0.22800
C2962       C  0.83834401  0.52156100  0.59659223     0.09200
C2963       C  0.82709496  0.54482997  0.58029100     0.09600
C2964       C  0.81585718  0.53090746  0.56056713    -0.17700
C2965       C  0.81641327  0.99104102  0.55728798    -0.28100
C2966       C  0.83149173  0.96818675  0.57282745     0.17900
C2967       C  0.84812506  0.53457933  0.61813756     0.11900
C2968       C  0.82683397  0.58422921  0.58375948    -0.12500
H2969       H  0.80559997  0.54851601  0.54833017     0.12200
C2970       C  0.83868943  0.92965841  0.56859413    -0.23300
H2971       H  0.85157430  0.96427588  0.60513860     0.07800
C2972       C  0.82236068  0.54019412  0.63413849     0.04100
C2973       C  0.83304722  0.55248982  0.65439459    -0.20500
C2974       C  0.86890294  0.55886153  0.65901235    -0.12800
C2975       C  0.89461249  0.55373680  0.64273199     0.12900
C2976       C  0.88383496  0.54116498  0.62259597    -0.23300
C2977       C  0.78376993  0.53255054  0.62994882    -0.06300
H2978       H  0.81343043  0.55636052  0.66685076     0.14400
C2979       C  0.93334515  0.56245615  0.64554627    -0.16500
H2980       H  0.90337983  0.53703226  0.61011686     0.08700
H2981       H  0.82389257  0.91319961  0.58027316     0.06600
H2982       H  0.86742863  0.92438809  0.57064074     0.07800
H2983       H  0.83132591  0.92145443  0.55209972     0.06800
H2984       H  0.85405367  0.59345099  0.58755611     0.01700
H2985       H  0.80904888  0.59114866  0.59726196     0.02200
H2986       H  0.81749912  0.59857708  0.56926842     0.05700
H2987       H  0.76726238  0.53766067  0.64434997     0.04700
H2988       H  0.77979196  0.00038590  0.62609600    -0.01100
H2989       H  0.77378132  0.54945724  0.61673099     0.00400
H2990       H  0.94928084  0.53786527  0.64444904     0.04000
H2991       H  0.93943694  0.57580279  0.66091349     0.06000
H2992       H  0.94180009  0.58073661  0.63259335     0.06800
C2993       C  0.68404337  0.90157150  0.62386112    -0.22800
C2994       C  0.72008519  0.90842750  0.62074925     0.09200
C2995       C  0.74405709  0.90450834  0.63798189     0.09600
C2996       C  0.73120218  0.89387891  0.65810275    -0.17700
C2997       C  0.69500743  0.88704674  0.66130148    -0.28100
C2998       C  0.67120176  0.89026128  0.64379232     0.17900
C2999       C  0.73190232  0.91965770  0.59920629     0.11900
C3000       C  0.78305613  0.91161434  0.63514659    -0.12500
H3001       H  0.74944635  0.89105607  0.67145037     0.12200
C3002       C  0.63255810  0.88036172  0.64503575    -0.23300
H3003       H  0.66590621  0.90422066  0.61043842     0.07800
C3004       C  0.74351117  0.89498743  0.58377722     0.04100
C3005       C  0.75461207  0.90706193  0.56358894    -0.20500
C3006       C  0.75385724  0.94317469  0.55842755    -0.12800
C3007       C  0.73931418  0.96741874  0.57336840     0.12900
C3008       C  0.72941475  0.95543478  0.59376572    -0.23300
C3009       C  0.74396783  0.85599139  0.58859065    -0.06300
H3010       H  0.76488344  0.88837848  0.55197618     0.14400
C3011       C  0.73249594  0.00568171  0.56813974    -0.16500
H3012       H  0.71904356  0.97404562  0.60540653     0.08700
H3013       H  0.62647268  0.86044389  0.63245640     0.06600
H3014       H  0.61600295  0.90414537  0.64217737     0.07800
H3015       H  0.62487502  0.86850914  0.66055954     0.06800
H3016       H  0.78715150  0.93923236  0.62981777     0.01700
H3017       H  0.79424259  0.89354295  0.62289329     0.02200
H3018       H  0.79800406  0.90767016  0.65033123     0.05700
H3019       H  0.75355922  0.84035578  0.57467954     0.04700
H3020       H  0.71676818  0.84694433  0.59251290    -0.01100
H3021       H  0.76165134  0.85052206  0.60242917     0.00400
H3022       H  0.70431230  0.51617866  0.57061310     0.04000
H3023       H  0.73964540  0.01261219  0.55142940     0.06000
H3024       H  0.74764945  0.02279940  0.57934218     0.06800
C3025       C  0.67333572  0.54827086  0.11747837    -0.22800
C3026       C  0.70957369  0.54045775  0.11589072     0.09200
C3027       C  0.73209361  0.54681584  0.13354847     0.09600
C3028       C  0.71788409  0.56108396  0.15242381    -0.17700
C3029       C  0.68152332  0.56841163  0.15426203    -0.28100
C3030       C  0.65891337  0.56188465  0.13657498     0.17900
C3031       C  0.72359325  0.52538286  0.09567680     0.11900
C3032       C  0.77142895  0.03712602  0.13253580    -0.12500
H3033       H  0.73513114  0.56553785  0.16609508     0.12200
C3034       C  0.61986732  0.56989296  0.13761679    -0.23300
H3035       H  0.65628948  0.54337089  0.10377519     0.07800
C3036       C  0.71985542  0.48918885  0.09075568     0.04100
C3037       C  0.73431568  0.47602247  0.07163460    -0.20500
C3038       C  0.75338031  0.49799350  0.05765323    -0.12800
C3039       C  0.75810521  0.03383433  0.06305067     0.12900
C3040       C  0.74245896  0.54743009  0.08173993    -0.23300
C3041       C  0.70111592  0.46441017  0.10584012    -0.06300
H3042       H  0.73068471  0.44843006  0.06753371     0.14400
C3043       C  0.78026863  0.05894661  0.04994192    -0.16500
H3044       H  0.74578768  0.07469755  0.08593946     0.08700
H3045       H  0.60651004  0.56475057  0.12202172     0.06600
H3046       H  0.61582892  0.59813704  0.14177836     0.07800
H3047       H  0.60701368  0.55301886  0.14988987     0.06800
H3048       H  0.78437537  0.05280363  0.11971732     0.01700
H3049       H  0.77468511  0.00854421  0.12898615     0.02200
H3050       H  0.78525540  0.04289834  0.14789365     0.05700
H3051       H  0.70112001  0.43683615  0.09972009     0.04700
H3052       H  0.67318795  0.47287706  0.10789458    -0.01100
H3053       H  0.71461743  0.46458218  0.12169172     0.00400
H3054       H  0.76319039  0.08029566  0.04342195     0.04000
H3055       H  0.79416646  0.04595543  0.03644630     0.06000
H3056       H  0.80093969  0.07094934  0.06034844     0.06800
C3057       C  0.60250849  0.68084808  0.45067100    -0.22800
C3058       C  0.57702537  0.66814227  0.43622270     0.09200
C3059       C  0.54126709  0.66619900  0.44254657     0.09600
C3060       C  0.53172138  0.67750207  0.46318928    -0.17700
C3061       C  0.55693356  0.69160052  0.47747496    -0.28100
C3062       C  0.59300368  0.69247195  0.47129015     0.17900
C3063       C  0.58879380  0.65596801  0.41479704     0.11900
C3064       C  0.51317828  0.65275051  0.42740368    -0.12500
H3065       H  0.50423859  0.67615360  0.46806503     0.12200
C3066       C  0.62157445  0.70602813  0.48610320    -0.23300
H3067       H  0.62998937  0.68171967  0.44571325     0.07800
C3068       C  0.59279638  0.67962480  0.39747793     0.04100
C3069       C  0.60598940  0.66702811  0.37783648    -0.20500
C3070       C  0.61455719  0.63121131  0.37505439    -0.12800
C3071       C  0.61022079  0.60750189  0.39243271     0.12900
C3072       C  0.59749501  0.62027547  0.41211836    -0.23300
C3073       C  0.58298173  0.71803484  0.39974711    -0.06300
H3074       H  0.60915926  0.68509958  0.36448580     0.14400
C3075       C  0.62020944  0.56904239  0.39062054    -0.16500
H3076       H  0.59455033  0.60241942  0.42559685     0.08700
H3077       H  0.64780402  0.70668837  0.47807853     0.06600
H3078       H  0.62402552  0.68850086  0.50026626     0.07800
H3079       H  0.61539453  0.73318951  0.49154418     0.06800
H3080       H  0.51913585  0.62506045  0.42277314     0.01700
H3081       H  0.51245600  0.66943484  0.41276419     0.02200
H3082       H  0.48646259  0.65337862  0.43482903     0.05700
H3083       H  0.58755989  0.73287928  0.38463202     0.04700
H3084       H  0.59915217  0.73042048  0.41260918    -0.01100
H3085       H  0.55451428  0.72043736  0.40393981     0.00400
H3086       H  0.61703849  0.55496965  0.40613967     0.04000
H3087       H  0.64833849  0.56665228  0.38566201     0.06000
H3088       H  0.60299569  0.55564842  0.37868340     0.06800
C3089       C  0.85988339  0.50358502  0.45183158    -0.22800
C3090       C  0.83822672  0.52546114  0.43927893     0.09200
C3091       C  0.80154128  0.03053601  0.44642834     0.09600
C3092       C  0.78917267  0.01460543  0.46533140    -0.17700
C3093       C  0.81124478  0.99276709  0.47771297    -0.28100
C3094       C  0.84703767  0.48769501  0.47063396     0.17900
C3095       C  0.85284704  0.54036312  0.41916082     0.11900
C3096       C  0.77686560  0.05311400  0.43326705    -0.12500
H3097       H  0.76223579  0.01933416  0.47056717     0.12200
C3098       C  0.87080857  0.46297162  0.48301067    -0.23300
H3099       H  0.88688311  0.49871547  0.44675016     0.07800
C3100       C  0.86627285  0.57516592  0.41797468     0.04100
C3101       C  0.87925592  0.58790580  0.39827714    -0.20500
C3102       C  0.88040035  0.56606256  0.38008977    -0.12800
C3103       C  0.86768055  0.53090614  0.38151842     0.12900
C3104       C  0.85384947  0.51864990  0.40100335    -0.23300
C3105       C  0.86768414  0.59844428  0.43757127    -0.06300
H3106       H  0.88908332  0.61474666  0.39713782     0.14400
C3107       C  0.86762936  0.50641544  0.36240542    -0.16500
H3108       H  0.83592122  0.99372324  0.40189036     0.08700
H3109       H  0.87614601  0.47357880  0.49927707     0.06600
H3110       H  0.89673535  0.45931379  0.47491947     0.07800
H3111       H  0.85803871  0.43666529  0.48442010     0.06800
H3112       H  0.77407148  0.04173936  0.41692352     0.01700
H3113       H  0.78746185  0.57921547  0.42938092     0.02200
H3114       H  0.75008980  0.05468469  0.44055597     0.05700
H3115       H  0.87941978  0.62466754  0.43391633     0.04700
H3116       H  0.88417954  0.58564699  0.45012786    -0.01100
H3117       H  0.84065822  0.60274977  0.44397971     0.00400
H3118       H  0.89520421  0.50084753  0.35730408     0.04000
H3119       H  0.85275448  0.51864678  0.34893296     0.06000
H3120       H  0.84327063  0.98422871  0.36527789     0.06800
C3121       C  0.63615384  0.79625960  0.12059890    -0.22800
C3122       C  0.60154029  0.78420367  0.11714123     0.09200
C3123       C  0.57666625  0.78545699  0.13398097     0.09600
C3124       C  0.58717943  0.79825819  0.15413775    -0.17700
C3125       C  0.62197931  0.80977062  0.15778821    -0.28100
C3126       C  0.64666997  0.80942671  0.14068587     0.17900
C3127       C  0.59153938  0.77063989  0.09571379     0.11900
C3128       C  0.53907265  0.77324303  0.13063549    -0.12500
H3129       H  0.56833383  0.79869162  0.16723382     0.12200
C3130       C  0.68381732  0.82372612  0.14276619    -0.23300
H3131       H  0.65494247  0.79575693  0.10746657     0.07800
C3132       C  0.57775421  0.79323923  0.07979915     0.04100
C3133       C  0.56552497  0.77874284  0.06044747    -0.20500
C3134       C  0.56673947  0.74214460  0.05668923    -0.12800
C3135       C  0.58321000  0.71991425  0.07203754     0.12900
C3136       C  0.59477265  0.73440692  0.09155875    -0.23300
C3137       C  0.57533217  0.83250728  0.08344931    -0.06300
H3138       H  0.55363720  0.79588253  0.04850309     0.14400
C3139       C  0.58989533  0.68119413  0.06819737    -0.16500
H3140       H  0.60625976  0.71731576  0.10367713     0.08700
H3141       H  0.68804069  0.84467811  0.13055937     0.06600
H3142       H  0.70318462  0.80215058  0.13995885     0.07800
H3143       H  0.68931051  0.83564947  0.15866109     0.06800
H3144       H  0.53887430  0.74527989  0.12537032     0.01700
H3145       H  0.52612075  0.78962700  0.11811868     0.02200
H3146       H  0.52321023  0.77534065  0.14556984     0.05700
H3147       H  0.56379638  0.84635093  0.06936224     0.04700
H3148       H  0.60220459  0.84342144  0.08639539    -0.01100
H3149       H  0.55835026  0.83805681  0.09756995     0.00400
H3150       H  0.61871853  0.67580789  0.06954895     0.04000
H3151       H  0.58130549  0.67237423  0.05204456     0.06000
H3152       H  0.57582550  0.66533021  0.08050215     0.06800
C3153       C  0.48024823  0.70209639  0.09397735    -0.22800
C3154       C  0.98351665  0.66537474  0.09854775     0.09200
C3155       C  0.99589099  0.64190157  0.08266006     0.09600
C3156       C  0.00687691  0.65546019  0.06279302    -0.17700
C3157       C  0.00547948  0.69187218  0.05845082    -0.28100
C3158       C  0.49014296  0.71559455  0.07393522     0.17900
C3159       C  0.97148355  0.65287297  0.11978909     0.11900
C3160       C  0.99721087  0.60265534  0.08659548    -0.12500
H3161       H  0.01737901  0.63769194  0.05073332     0.12200
C3162       C  0.48304977  0.75413096  0.06967950    -0.23300
H3163       H  0.46953756  0.71978590  0.10602731     0.07800
C3164       C  0.99519516  0.64900808  0.13715959     0.04100
C3165       C  0.98193726  0.63926688  0.15733639    -0.20500
C3166       C  0.94551794  0.63389441  0.16056678    -0.12800
C3167       C  0.92188858  0.63737436  0.14303644     0.12900
C3168       C  0.93523698  0.64687488  0.12284607    -0.23300
C3169       C  0.03431601  0.65559228  0.13448004    -0.06300
H3170       H  0.00003310  0.63621898  0.17074556     0.14400
C3171       C  0.88283890  0.63001708  0.14530923    -0.16500
H3172       H  0.91731494  0.64989638  0.10934939     0.08700
H3173       H  0.49837503  0.77055517  0.08117759     0.06600
H3174       H  0.45442120  0.75962744  0.07197687     0.07800
H3175       H  0.48988949  0.76219887  0.05311240     0.06800
H3176       H  0.97020325  0.59275022  0.09021587     0.01700
H3177       H  0.01489875  0.59670885  0.10035232     0.02200
H3178       H  0.00729396  0.58811230  0.07237603     0.05700
H3179       H  0.54883989  0.65314839  0.14977727     0.04700
H3180       H  0.53839473  0.68397717  0.12878764    -0.01100
H3181       H  0.04555668  0.63697178  0.12256374     0.00400
H3182       H  0.86876668  0.63207345  0.12968430     0.04000
H3183       H  0.87066464  0.64941816  0.15641690     0.06000
H3184       H  0.87880135  0.60285453  0.15157557     0.06800
C3185       C  0.71197811  0.91725718  0.40112366    -0.22800
C3186       C  0.70930125  0.89685037  0.41977328     0.09200
C3187       C  0.69238756  0.86357195  0.41891284     0.09600
C3188       C  0.67871622  0.85126535  0.39924099    -0.17700
C3189       C  0.68117601  0.87185813  0.38060151    -0.28100
C3190       C  0.69819158  0.90516054  0.38152596     0.17900
C3191       C  0.72476513  0.91090044  0.43995822     0.11900
C3192       C  0.68900150  0.84110613  0.43873082    -0.12500
H3193       H  0.66600461  0.82562242  0.39839987     0.12200
C3194       C  0.70288657  0.92753404  0.36171381    -0.23300
H3195       H  0.72519790  0.94265811  0.40191612     0.07800
C3196       C  0.76089399  0.90613583  0.44500062     0.04100
C3197       C  0.77436990  0.91995834  0.46427918    -0.20500
C3198       C  0.75279384  0.93931624  0.47836843    -0.12800
C3199       C  0.71677076  0.94494650  0.47294462     0.12900
C3200       C  0.70316560  0.93038542  0.45387013    -0.23300
C3201       C  0.78521426  0.88667767  0.42994916    -0.06300
H3202       H  0.80193742  0.91574923  0.46836233     0.14400
C3203       C  0.69290980  0.96738293  0.48672929    -0.16500
H3204       H  0.67561375  0.93450037  0.44962955     0.08700
H3205       H  0.71752560  0.91236040  0.34931622     0.06600
H3206       H  0.71807375  0.95202508  0.36518023     0.07800
H3207       H  0.67666286  0.93546442  0.35525310     0.06800
H3208       H  0.67364221  0.85556054  0.45111622     0.01700
H3209       H  0.71571299  0.83488577  0.44518291     0.02200
H3210       H  0.67517166  0.81581458  0.43530194     0.05700
H3211       H  0.81266534  0.88524124  0.43633880     0.04700
H3212       H  0.78608471  0.90051397  0.41425012    -0.01100
H3213       H  0.77544444  0.85931237  0.42748139     0.00400
H3214       H  0.66639554  0.97092629  0.47927783     0.04000
H3215       H  0.70484114  0.99394041  0.48897301     0.06000
H3216       H  0.68885370  0.95484036  0.50259434     0.06800
C3217       C  0.88556587  0.88840675  0.11729142    -0.22800
C3218       C  0.84889043  0.89397488  0.11538936     0.09200
C3219       C  0.82652703  0.88471442  0.13262384     0.09600
C3220       C  0.84141022  0.87068177  0.15143245    -0.17700
C3221       C  0.87819880  0.86614663  0.15369434    -0.28100
C3222       C  0.90055988  0.87483771  0.13629888     0.17900
C3223       C  0.83440905  0.90968933  0.09530227     0.11900
C3224       C  0.78706560  0.89072753  0.13152419    -0.12500
H3225       H  0.82420504  0.86432051  0.16478816     0.12200
C3226       C  0.93999420  0.86907146  0.13748977    -0.23300
H3227       H  0.90253608  0.89501760  0.10387447     0.07800
C3228       C  0.83993088  0.94558583  0.09002554     0.04100
C3229       C  0.82580029  0.95908481  0.07081745    -0.20500
C3230       C  0.80541937  0.93782959  0.05703790    -0.12800
C3231       C  0.79877764  0.90225586  0.06275694     0.12900
C3232       C  0.81391571  0.88849383  0.08159836    -0.23300
C3233       C  0.85985502  0.96990610  0.10491342    -0.06300
H3234       H  0.83042887  0.98646297  0.06657010     0.14400
C3235       C  0.77458589  0.87911591  0.04955266    -0.16500
H3236       H  0.80941072  0.86109510  0.08583518     0.08700
H3237       H  0.95315698  0.87557304  0.12206302     0.06600
H3238       H  0.94561767  0.84094565  0.14124997     0.07800
H3239       H  0.95177104  0.88617687  0.15007806     0.06800
H3240       H  0.77523926  0.87445713  0.11854995     0.01700
H3241       H  0.78154944  0.91907054  0.12834582     0.02200
H3242       H  0.77377260  0.88337892  0.14676827     0.05700
H3243       H  0.86064609  0.99738358  0.09867742     0.04700
H3244       H  0.88755192  0.96065737  0.10685829    -0.01100
H3245       H  0.84668757  0.97040587  0.12083068     0.00400
H3246       H  0.77054224  0.85289976  0.05716483     0.04000
H3247       H  0.78596311  0.87450619  0.03341926     0.06000
H3248       H  0.74929715  0.39082662  0.04692027     0.06800
C3249       C  0.97143766  0.75630918  0.39738620    -0.22800
C3250       C  0.97325266  0.78180090  0.41367751     0.09200
C3251       C  0.96457964  0.81724634  0.40912791     0.09600
C3252       C  0.95369956  0.82632894  0.38836066    -0.17700
C3253       C  0.95113422  0.80078904  0.37209413    -0.28100
C3254       C  0.96069229  0.76536953  0.37653826     0.17900
C3255       C  0.98446794  0.77093850  0.43541163     0.11900
C3256       C  0.96606054  0.84531841  0.42627746    -0.12500
H3257       H  0.94647196  0.85346212  0.38488337     0.12200
C3258       C  0.96121103  0.73680129  0.35967546    -0.23300
H3259       H  0.97878238  0.72922656  0.40093872     0.07800
C3260       C  0.96126560  0.75285505  0.44931443     0.04100
C3261       C  0.97303990  0.74353660  0.46990015    -0.20500
C3262       C  0.50782526  0.75198946  0.47676113    -0.12800
C3263       C  0.53071820  0.77089235  0.46298567     0.12900
C3264       C  0.51921257  0.77947995  0.44227325    -0.23300
C3265       C  0.92417089  0.74347496  0.44243332    -0.06300
H3266       H  0.95579086  0.72870286  0.48046558     0.14400
C3267       C  0.56703756  0.78298311  0.46976295    -0.16500
H3268       H  0.53689019  0.79344144  0.43152018     0.08700
H3269       H  0.94199177  0.71579276  0.36400420     0.06600
H3270       H  0.48808053  0.72495685  0.35884117     0.07800
H3271       H  0.95469446  0.74658939  0.34340142     0.06800
H3272       H  0.99356621  0.84811844  0.43235087     0.01700
H3273       H  0.94835976  0.83794771  0.43975798     0.02200
H3274       H  0.95745795  0.87146565  0.42008303     0.05700
H3275       H  0.90938049  0.72990495  0.45542683     0.04700
H3276       H  0.92502419  0.72552232  0.42835512    -0.01100
H3277       H  0.90949394  0.76786810  0.43806951     0.00400
H3278       H  0.58736573  0.76999726  0.45960766     0.04000
H3279       H  0.57269336  0.77721201  0.48685280     0.06000
H3280       H  0.56910731  0.81204242  0.46767219     0.06800
loop_ 
_geom_bond_atom_site_label_1 
_geom_bond_atom_site_label_2 
_geom_bond_distance 
_geom_bond_site_symmetry_2 
_ccdc_geom_bond_type 
C1            N2   1.357       .  A
C1            N6   1.359       .  A
C1          C793   1.474       .  S
N2            C3   1.356       .  A
C3            N4   1.354       .  A
C3           C45   1.459       .  S
N4            C5   1.356       .  A
C5            N6   1.358       .  A
C5          C102   1.460       .  S
C7            N8   1.362       .  A
C7           N12   1.362       .  A
C7          C761   1.488       .  S
N8            C9   1.357       .  A
C9           N10   1.355       .  A
C9          C114   1.464       .  S
N10          C11   1.356       .  A
C11          N12   1.360       .  A
C11          C33   1.466       .  S
C13          N14   1.362       .  A
C13          N18   1.359       .  A
C13         C729   1.478       .  S
N14          C15   1.360       .  A
C15          N16   1.356       .  A
C15         C103   1.466       .  S
N16          C17   1.355       .  A
C17          N18   1.356       .  A
C17          C68   1.462       .  S
C19          N20   1.360       .  A
C19          N24   1.357       .  A
C19         C706   1.478       .  S
N20          C21   1.359       .  A
C21          N22   1.355       .  A
C21         C137   1.464       .  S
N22          C23   1.356       .  A
C23          N24   1.356       .  A
C23          C34   1.459       .  S
N25          N26   1.324       .  A
N25        N1671   1.316       .  A
N25         Mn54   2.210   1_655  S
N26        C1673   1.354       .  A
N27          N28   1.319       .  A
N27        N1669   1.317       .  A
N27        Mn863   2.201   1_545  S
N28          C34   1.351       .  A
N29          N30   1.319       .  A
N29        N1667   1.317       .  A
N29        Mn874   2.195   1_645  S
N30        C1674   1.351       .  A
N31          N32   1.319       .  A
N31        N1665   1.316       .  A
N31         Mn43   2.198       .  S
N32          C33   1.350       .  A
C33        N1666   1.354       .  A
C34        N1670   1.351       .  A
N35          N36   1.323       .  A
N35        N1681   1.315       .  A
N35        Mn885   2.208   1_645  S
N36        C1684   1.354       .  A
N37          N38   1.320       .  A
N37        N1679   1.316       .  A
N37         Mn43   2.208       .  S
N38          C45   1.353       .  A
N39          N40   1.317       .  A
N39        N1677   1.316       .  A
N39         Mn65   2.185   1_655  S
N40        C1685   1.349       .  A
N41          N42   1.319       .  A
N41        N1675   1.315       .  A
N41        Mn863   2.197   1_545  S
N42          C44   1.350       .  A
Mn43        N847   2.203       .  S
Mn43        N861   2.195       .  S
Mn43      Cl1707   2.524       .  S
C44        N1676   1.354       .  A
C44          C80   1.465       .  S
C45        N1680   1.349       .  A
N46          N47   1.324       .  A
N46          N52   1.315       .  A
N46        Mn874   2.210   1_545  S
N47          C55   1.354       .  A
N48          N50   1.317       .  A
N48          N49   1.319       .  A
N48         Mn66   2.206       .  S
N49          C56   1.351       .  A
N50          N51   1.320       .  A
N50         Mn54   2.196       .  S
N51          C56   1.352       .  A
N52          N53   1.318       .  A
N52        Mn886   2.189   1_545  S
N53          C55   1.349       .  A
Mn54        N849   2.195   1_455  S
Mn54        N866   2.211       .  S
Mn54        Cl67   2.570       .  S
C55          C90   1.464       .  S
C56          C72   1.463       .  S
N57          N58   1.323       .  A
N57          N63   1.315       .  A
N57         Mn65   2.204       .  S
N58          C68   1.354       .  A
N59          N60   1.322       .  A
N59          N61   1.317       .  A
N59        Mn886   2.215   1_545  S
N60          C69   1.354       .  A
N61          N62   1.319       .  A
N61        Mn885   2.192   1_545  S
N62          C69   1.351       .  A
N63          N64   1.318       .  A
N63         Mn66   2.191       .  S
N64          C68   1.349       .  A
Mn65        N855   2.205   1_455  S
Mn65        N881   2.188       .  S
Mn65        Cl67   2.566       .  S
Mn66        N872   2.191       .  S
Mn66        N879   2.212       .  S
Mn66        Cl67   2.521       .  S
Cl67      Mn1683   2.524   1_455  S
C69          C86   1.465       .  S
C70          N71   1.359       .  A
C70          N75   1.358       .  A
C70         C665   1.473       .  S
N71          C72   1.358       .  A
C72          N73   1.357       .  A
N73          C74   1.355       .  A
C74          N75   1.357       .  A
C74         C113   1.463       .  S
C76          N77   1.361       .  A
C76          N81   1.360       .  A
C76         C642   1.477       .  S
N77          C78   1.360       .  A
C78          N79   1.357       .  A
C78         C125   1.465       .  S
N79          C80   1.356       .  A
C80          N81   1.357       .  A
C82          N83   1.360       .  A
C82          N87   1.357       .  A
C82         C610   1.480       .  S
N83          C84   1.361       .  A
C84          N85   1.358       .  A
C84         C124   1.467       .  S
N85          C86   1.356       .  A
C86          N87   1.356       .  A
C88          N89   1.361       .  A
C88          N93   1.361       .  A
C88         C569   1.481       .  S
N89          C90   1.359       .  A
C90          N91   1.357       .  A
N91          C92   1.356       .  A
C92          N93   1.357       .  A
C92         C138   1.465       .  S
N94          N95   1.319       .  A
N94         N100   1.317       .  A
N94        Mn123   2.192       .  S
N95         C102   1.351       .  A
N96          N98   1.316       .  A
N96          N97   1.318       .  A
N96        Mn112   2.195       .  S
N97         C103   1.349       .  A
N98          N99   1.324       .  A
N98        Mn123   2.212       .  S
N99         C103   1.354       .  A
N100        N101   1.319       .  A
N100       Mn112   2.207       .  S
N101        C102   1.352       .  A
N104        N110   1.317       .  A
N104        N105   1.319       .  A
N104       Mn134   2.193       .  S
N105        C113   1.351       .  A
N106        N107   1.319       .  A
N106        N108   1.315       .  A
N106       Mn112   2.196       .  S
N107        C114   1.350       .  A
N108        N109   1.323       .  A
N108       Mn134   2.204       .  S
N109        C114   1.353       .  A
N110        N111   1.320       .  A
N110       Mn112   2.212       .  S
N111        C113   1.353       .  A
Mn112      Cl136   2.521       .  S
N115        N116   1.321       .  A
N115        N121   1.317       .  A
N115       Mn123   2.199       .  S
N116        C124   1.352       .  A
N117        N119   1.315       .  A
N117        N118   1.317       .  A
N117       Mn135   2.191       .  S
N118        C125   1.349       .  A
N119        N120   1.324       .  A
N119       Mn123   2.211       .  S
N120        C125   1.355       .  A
N121        N122   1.320       .  A
N121       Mn135   2.214       .  S
N122        C124   1.353       .  A
Mn123      Cl136   2.574       .  S
N126        N127   1.319       .  A
N126        N132   1.317       .  A
N126       Mn134   2.189       .  S
N127        C137   1.350       .  A
N128        N129   1.319       .  A
N128        N130   1.316       .  A
N128       Mn135   2.192       .  S
N129        C138   1.349       .  A
N130        N131   1.323       .  A
N130       Mn134   2.210       .  S
N131        C138   1.354       .  A
N132        N133   1.321       .  A
N132       Mn135   2.215       .  S
N133        C137   1.354       .  A
Mn134      Cl136   2.571       .  S
Mn135      Cl136   2.520       .  S
C139        C738   1.489       .  S
C139        C140   1.416       .  A
C139        C144   1.407       .  A
C140        C633   1.488       .  S
C140        C141   1.402       .  A
C141        C142   1.402       .  A
C141        H966   1.084       .  S
C142        C505   1.486       .  S
C142        C143   1.417       .  A
C143        C546   1.493       .  S
C143        C144   1.405       .  A
C144        H145   1.084       .  S
H146        C961   1.084   1_545  S
C147        C674   1.486       .  S
C147        C148   1.418       .  A
C147        C152   1.402       .  A
C148       C2337   1.488       .  S
C148       C1789   1.403       .  A
C149       C1788   1.403       .  A
C149       C1790   1.403   1_554  A
C149        H154   1.084       .  S
C150       C2113   1.483   1_455  S
C150        C151   1.415       .  A
C150       C1789   1.403   1_556  A
C151        C441   1.487       .  S
C151        C152   1.403   1_556  A
C152        H153   1.085       .  S
C155        C802   1.480       .  S
C155        C156   1.416       .  A
C155        C160   1.400       .  A
C156        C601   1.491       .  S
C156        C157   1.403       .  A
C157        C158   1.406       .  A
C157        H162   1.084       .  S
C158        C377   1.486       .  S
C158        C159   1.416       .  A
C159        C418   1.484       .  S
C159        C160   1.400       .  A
C160       H1801   1.085   1_455  S
H161       C1800   1.085       .  S
C163       C1398   1.486       .  S
C163        C164   1.418       .  A
C163        C168   1.404       .  A
C164        C770   1.492       .  S
C164        C165   1.406       .  A
C165        C166   1.403   1_554  A
C165        H170   1.084       .  S
C166        C345   1.485       .  S
C166        C167   1.414       .  A
C167        C322   1.485       .  S
C167        C168   1.399   1_556  A
C168        H989   1.085       .  S
H169        C988   1.084   1_545  S
C171        N172   1.359       .  A
C171        N176   1.357       .  A
C171        C354   1.479       .  S
N172        C173   1.359       .  A
C173        N174   1.356       .  A
C173        C272   1.463       .  S
N174        C175   1.355       .  A
C175        N176   1.357       .  A
C175        C227   1.461       .  S
C177        N178   1.360       .  A
C177        N182   1.362       .  A
C177        C482   1.478       .  S
N178        C179   1.358       .  A
C179        N180   1.357       .  A
C179        C226   1.464       .  S
N180        C181   1.357       .  A
C181        N182   1.358       .  A
C181        C295   1.466       .  S
C183        N184   1.360       .  A
C183        N188   1.358       .  A
C183        C313   1.479       .  S
N184        C185   1.359       .  A
C185        N186   1.357       .  A
C185        C294   1.464       .  S
N186        C187   1.356       .  A
C187        N188   1.357       .  A
C187        C251   1.463       .  S
C189        N190   1.363       .  A
C189        N194   1.363       .  A
C189        C450   1.488       .  S
N190        C191   1.358       .  A
C191        N192   1.356       .  A
C191        C273   1.467       .  S
N192        C193   1.356       .  A
C193        N194   1.360       .  A
C193        C250   1.466       .  S
C195        N196   1.361       .  A
C195        N200   1.358       .  A
C195        C386   1.473       .  S
N196        C197   1.358       .  A
C197        N198   1.356       .  A
C197        C237   1.462       .  S
N198        C199   1.356       .  A
C199        N200   1.357       .  A
C199        C308   1.460       .  S
C201        N202   1.361       .  A
C201        N206   1.357       .  A
C201        C514   1.478       .  S
N202        C203   1.361       .  A
C203        N204   1.357       .  A
C203        C216   1.465       .  S
N204        C205   1.355       .  A
C205        N206   1.356       .  A
C205        C307   1.462       .  S
N207        N208   1.324       .  A
N207        N213   1.315       .  A
N207       Mn236   2.214       .  S
N208        C215   1.355       .  A
N209        N211   1.317       .  A
N209        N210   1.320       .  A
N209       Mn225   2.213       .  S
N210        C216   1.353       .  A
N211        N212   1.321       .  A
N211       Mn236   2.198       .  S
N212        C216   1.352       .  A
N213        N214   1.318       .  A
N213       Mn225   2.190       .  S
N214        C215   1.349       .  A
C215        C256   1.466       .  S
N217        N223   1.315       .  A
N217        N218   1.323       .  A
N217       Mn247   2.207       .  S
N218        C226   1.354       .  A
N219        N220   1.321       .  A
N219        N221   1.317       .  A
N219       Mn225   2.213       .  S
N220        C227   1.354       .  A
N221        N222   1.318       .  A
N221       Mn247   2.186       .  S
N222        C227   1.350       .  A
N223        N224   1.318       .  A
N223       Mn225   2.192       .  S
N224        C226   1.349       .  A
Mn225      Cl249   2.522       .  S
N228        N229   1.324       .  A
N228        N234   1.316       .  A
N228       Mn236   2.211       .  S
N229        C237   1.355       .  A
N230        N232   1.318       .  A
N230        N231   1.320       .  A
N230       Mn248   2.214       .  S
N231        C238   1.353       .  A
N232        N233   1.321       .  A
N232       Mn236   2.197       .  S
N233        C238   1.352       .  A
N234        N235   1.317       .  A
N234       Mn248   2.188       .  S
N235        C237   1.348       .  A
Mn236      Cl249   2.573       .  S
C238        C262   1.465       .  S
N239        N240   1.324       .  A
N239        N245   1.315       .  A
N239       Mn247   2.208       .  S
N240        C250   1.354       .  A
N241        N242   1.321       .  A
N241        N243   1.317       .  A
N241       Mn248   2.216       .  S
N242        C251   1.354       .  A
N243        N244   1.318       .  A
N243       Mn247   2.186       .  S
N244        C251   1.350       .  A
N245        N246   1.319       .  A
N245       Mn248   2.195       .  S
N246        C250   1.350       .  A
Mn247      Cl249   2.569       .  S
Mn248      Cl249   2.521       .  S
C252        N253   1.362       .  A
C252        N257   1.360       .  A
C252        C409   1.479       .  S
N253        C254   1.360       .  A
C254        N255   1.357       .  A
C254        C284   1.468       .  S
N255        C256   1.357       .  A
C256        N257   1.357       .  A
C258        N259   1.360       .  A
C258        N263   1.360       .  A
C258        C537   1.482       .  S
N259        C260   1.359       .  A
C260        N261   1.355       .  A
C260        C283   1.465       .  S
N261        C262   1.356       .  A
C262        N263   1.360       .  A
N264        N265   1.319       .  A
N264        N270   1.317       .  A
N264      Mn1933   2.191       .  S
N265        C272   1.350       .  A
N266        N268   1.316       .  A
N266        N267   1.318       .  A
N266       Mn282   2.194       .  S
N267        C273   1.349       .  A
N268        N269   1.325       .  A
N268       Mn293   2.214       .  S
N269        C273   1.355       .  A
N270        N271   1.320       .  A
N270      Mn1922   2.214       .  S
N271        C272   1.353       .  A
N274        N280   1.317       .  A
N274        N275   1.320       .  A
N274       Mn304   2.193       .  S
N275        C283   1.351       .  A
N276        N277   1.319       .  A
N276        N278   1.315       .  A
N276      Mn1922   2.196       .  S
N277        C284   1.350       .  A
N278        N279   1.324       .  A
N278      Mn1944   2.211       .  S
N279        C284   1.355       .  A
N280        N281   1.321       .  A
N280       Mn282   2.216       .  S
N281        C283   1.354       .  A
Mn282      N1910   2.213   1_455  S
Mn282      N1916   2.197   1_455  S
Mn282      Cl306   2.522       .  S
N285        N286   1.320       .  A
N285        N291   1.317       .  A
N285      Mn1113   2.195   1_545  S
N286        C294   1.352       .  A
N287        N289   1.315       .  A
N287        N288   1.318       .  A
N287      Mn1945   2.191       .  S
N288        C295   1.349       .  A
N289        N290   1.324       .  A
N289      Mn2753   2.213   1_545  S
N290        C295   1.355       .  A
N291        N292   1.320       .  A
N291       Mn305   2.211       .  S
N292        C294   1.353       .  A
Mn293      N1904   2.191   1_455  S
Mn293      N1105   2.195       .  S
Mn293      N2749   2.211   1_455  S
Mn293      Cl306   2.573       .  S
N296        N297   1.319       .  A
N296        N302   1.317       .  A
N296      Mn2764   2.193   1_545  S
N297        C307   1.351       .  A
N298        N299   1.318       .  A
N298        N300   1.315       .  A
N298       Mn305   2.189       .  S
N299        C308   1.349       .  A
N300        N301   1.322       .  A
N300      Mn1124   2.203   1_545  S
N301        C308   1.353       .  A
N302        N303   1.320       .  A
N302      Mn1945   2.211       .  S
N303        C307   1.353       .  A
Mn304      N1918   2.211   1_455  S
Mn304      N2756   2.194   1_455  S
Mn304      N1120   2.205       .  S
Mn304      Cl306   2.571       .  S
Mn305      N1927   2.191   1_455  S
Mn305      N1942   2.211   1_455  S
Mn305     Cl1126   2.521   1_545  S
Cl306     Mn1125   2.521       .  S
C309        C310   1.402       .  A
C309        C314   1.404       .  A
C309        H319   1.085   1_545  S
C310        C315   1.481       .  S
C310        C311   1.410       .  A
C311        C312   1.403       .  A
C311        C316   1.506       .  S
C312        C313   1.406       .  A
C312        H317   1.084       .  S
C313        C314   1.417       .  A
C314        C318   1.508   1_545  S
C315        C324   1.401       .  A
C315       C1140   1.411       .  A
C316        H332   1.110       .  S
C316        H333   1.110       .  S
C316        H334   1.111       .  S
C318        H329   1.110       .  S
C318        H330   1.111       .  S
C318        H331   1.106       .  S
C320        C321   1.403       .  A
C320       C1135   1.410       .  A
C320        C325   1.506       .  S
C321        C322   1.404       .  A
C321        H326   1.084       .  S
C322       C1143   1.417       .  A
C323        C324   1.402       .  A
C323       C1142   1.417       .  A
C323        C327   1.507       .  S
C324        H328   1.084       .  S
C325        H335   1.111       .  S
C325        H336   1.110       .  S
C325        H337   1.111       .  S
C327        H338   1.110       .  S
C327        H339   1.108       .  S
C327        H340   1.110       .  S
C341        C342   1.401       .  A
C341        C346   1.403       .  A
C341        H351   1.084       .  S
C342        C347   1.481       .  S
C342        C343   1.411       .  A
C343        C344   1.402       .  A
C343        C348   1.506       .  S
C344        C345   1.402       .  A
C344        H349   1.084       .  S
C345        C346   1.417       .  A
C346        C350   1.507       .  S
C347        C352   1.410       .  A
C347        C356   1.402       .  A
C348        H364   1.110       .  S
C348        H365   1.110       .  S
C348        H366   1.111       .  S
C350        H361   1.110       .  S
C350        H362   1.110       .  S
C350        H363   1.108       .  S
C352        C353   1.402       .  A
C352        C357   1.507       .  S
C353        C354   1.405       .  A
C353        H358   1.084       .  S
C354        C355   1.415       .  A
C355        C356   1.405       .  A
C355        C359   1.507       .  S
C356        H360   1.084       .  S
C357        H367   1.111       .  S
C357        H368   1.110       .  S
C357        H369   1.110       .  S
C359        H370   1.111       .  S
C359        H371   1.110       .  S
C359        H372   1.109       .  S
C373        C374   1.400       .  A
C373        C378   1.401       .  A
C373        H383   1.084       .  S
C374        C379   1.480       .  S
C374        C375   1.410       .  A
C375        C376   1.404       .  A
C375        C380   1.506       .  S
C376        C377   1.405       .  A
C376        H381   1.084       .  S
C377        C378   1.418       .  A
C378        C382   1.508       .  S
C379        C384   1.411       .  A
C379        C388   1.399       .  A
C380        H396   1.110       .  S
C380        H397   1.110       .  S
C380        H398   1.111   1_455  S
C382        H393   1.110       .  S
C382        H394   1.111       .  S
C382        H395   1.106       .  S
C384        C385   1.405       .  A
C384        C389   1.506       .  S
C385        C386   1.402       .  A
C385        H390   1.084       .  S
C386        C387   1.418       .  A
C387        C388   1.402       .  A
C387        C391   1.509       .  S
C388        H392   1.085       .  S
C389        H399   1.111       .  S
C389        H400   1.110       .  S
C389        H401   1.110       .  S
C391        H402   1.110       .  S
C391        H403   1.107       .  S
C391        H404   1.111       .  S
C405        C406   1.404       .  A
C405        C410   1.408       .  A
C405        H415   1.084       .  S
C406        C411   1.482       .  S
C406        C407   1.411       .  A
C407        C408   1.403       .  A
C407        C412   1.509       .  S
C408        C409   1.405       .  A
C408        H413   1.084       .  S
C409        C410   1.412       .  A
C410        C414   1.506       .  S
C411        C416   1.411       .  A
C411       C2060   1.402       .  A
C412        H428   1.110       .  S
C412        H429   1.109       .  S
C412        H430   1.111       .  S
C414        H425   1.111       .  S
C414        H426   1.110       .  S
C414        H427   1.110       .  S
C416        C417   1.404       .  A
C416        C421   1.507       .  S
C417       C2058   1.404       .  A
C417        H422   1.084       .  S
C418        C419   1.415       .  A
C418       C2057   1.404   1_455  A
C419        C420   1.403       .  A
C419        C423   1.506       .  S
C420       C2051   1.402   1_455  A
C420        H424   1.084       .  S
C421        H431   1.111       .  S
C421        H432   1.110       .  S
C421        H433   1.109       .  S
C423        H434   1.110       .  S
C423        H435   1.107       .  S
C423        H436   1.110       .  S
C437        C438   1.401       .  A
C437        C442   1.402       .  A
C437        H447   1.084       .  S
C438        C443   1.488       .  S
C438        C439   1.413       .  A
C439        C440   1.407       .  A
C439        C444   1.506       .  S
C440        C441   1.404       .  A
C440        H445   1.084       .  S
C441        C442   1.418       .  A
C442        C446   1.509       .  S
C443        C448   1.410       .  A
C443        C452   1.404       .  A
C444        H460   1.110       .  S
C444        H461   1.110       .  S
C444        H462   1.111       .  S
C446        H457   1.111       .  S
C446        H458   1.110       .  S
C446        H459   1.107   1_556  S
C448        C449   1.403       .  A
C448        C453   1.508       .  S
C449        C450   1.407       .  A
C449        H454   1.084       .  S
C450        C451   1.419       .  A
C451        C452   1.408       .  A
C451        C455   1.507       .  S
C452        H456   1.084       .  S
C453        H463   1.111       .  S
C453        H464   1.109       .  S
C453        H465   1.111       .  S
C455        H466   1.111       .  S
C455        H467   1.107       .  S
C455        H468   1.110       .  S
C469        C470   1.402       .  A
C469        C474   1.404       .  A
C469        H479   1.084       .  S
C470        C475   1.483       .  S
C470        C471   1.411       .  A
C471       C2112   1.403       .  A
C471       C2116   1.507       .  S
C472       C2111   1.403   1_455  A
C472       C2113   1.403   1_455  A
C472        H477   1.084       .  S
C473       C1790   1.482       .  S
C473        C474   1.415       .  A
C473       C2112   1.403       .  A
C474        C478   1.506       .  S
C475        C480   1.412       .  A
C475        C484   1.399       .  A
C476       C2111   1.507       .  S
C476        H492   1.110   1_655  S
C476        H494   1.111   1_655  S
C476       H2133   1.110       .  S
C478        H489   1.110       .  S
C478        H490   1.110       .  S
C478        H491   1.107       .  S
C480        C481   1.408       .  A
C480        C485   1.506       .  S
C481        C482   1.405       .  A
C481        H486   1.084       .  S
C482        C483   1.418       .  A
C483        C484   1.400       .  A
C483        C487   1.509       .  S
C484        H488   1.085       .  S
C485        H495   1.111       .  S
C485        H496   1.110       .  S
C485        H497   1.110       .  S
C487        H498   1.111       .  S
C487        H499   1.106       .  S
C487       H2140   1.110       .  S
H493       C2116   1.110       .  S
H500       C2127   1.110   1_455  S
C501        C506   1.401       .  A
C501       C1322   1.400       .  A
C501        H511   1.084       .  S
C502        C507   1.478       .  S
C502        C503   1.410       .  A
C502       C1321   1.400   1_545  A
C503        C504   1.402       .  A
C503        C508   1.507       .  S
C504       C1325   1.405   1_545  A
C504        H509   1.084       .  S
C505        C506   1.417       .  A
C505       C1324   1.405       .  A
C506        C510   1.507       .  S
C507        C512   1.411       .  A
C507        C516   1.398       .  A
C508        H524   1.110       .  S
C508        H525   1.109       .  S
C508        H526   1.111       .  S
C510        H521   1.110       .  S
C510        H522   1.110       .  S
C510        H523   1.108       .  S
C512        C513   1.405       .  A
C512        C517   1.508       .  S
C513        C514   1.405       .  A
C513        H518   1.084       .  S
C514        C515   1.419       .  A
C515        C516   1.401       .  A
C515        C519   1.509       .  S
C516        H520   1.084       .  S
C517        H527   1.111       .  S
C517        H529   1.109       .  S
C517       H1348   1.108       .  S
C519        H530   1.110       .  S
C519        H531   1.106       .  S
C519        H532   1.111       .  S
H528       C1337   1.109       .  S
C533        C534   1.400       .  A
C533        C538   1.403       .  A
C533        H543   1.084       .  S
C534        C539   1.482       .  S
C534        C535   1.411       .  A
C535        C536   1.406       .  A
C535        C540   1.507       .  S
C536        C537   1.406       .  A
C536        H541   1.084       .  S
C537        C538   1.419       .  A
C538        C542   1.509       .  S
C539        C544   1.411       .  A
C539        C548   1.400       .  A
C540        H556   1.109       .  S
C540        H557   1.109       .  S
C540        H558   1.111       .  S
C542        H553   1.111       .  S
C542        H554   1.110       .  S
C542        H555   1.106       .  S
C544        C545   1.404       .  A
C544        C549   1.506       .  S
C545        C546   1.405       .  A
C545        H550   1.084       .  S
C546        C547   1.419       .  A
C547        C548   1.404       .  A
C547        C551   1.506       .  S
C548        H552   1.084       .  S
C549        H559   1.111       .  S
C549        H560   1.110       .  S
C549        H561   1.109       .  S
C551        H563   1.108       .  S
C551        H564   1.110       .  S
C551       H1382   1.110       .  S
H562       C1371   1.110       .  S
C565        C566   1.404       .  A
C565        C570   1.408       .  A
C565        H575   1.084       .  S
C566        C571   1.483       .  S
C566        C567   1.410       .  A
C567        C568   1.403       .  A
C567       C1392   1.508       .  S
C568        C569   1.406       .  A
C568        H573   1.084       .  S
C569        C570   1.414       .  A
C570        C574   1.507       .  S
C571        C576   1.411   1_545  A
C571        C580   1.401       .  A
C572       C1387   1.508       .  S
C572        H588   1.110       .  S
C572        H589   1.111       .  S
C572        H590   1.111       .  S
C574        H585   1.111       .  S
C574        H586   1.110       .  S
C574        H587   1.109       .  S
C576        C577   1.403       .  A
C576        C581   1.506       .  S
C577        C578   1.405       .  A
C577        H582   1.083       .  S
C578        C983   1.488       .  S
C578       C1399   1.418   1_565  A
C579       C1398   1.418       .  A
C579       C1400   1.402       .  A
C579        C583   1.508       .  S
C580       C1399   1.403       .  A
C580       H1404   1.085       .  S
C581        H591   1.111       .  S
C581        H592   1.110       .  S
C581        H593   1.111       .  S
C583        H594   1.110       .  S
C583        H595   1.107       .  S
C583        H596   1.111       .  S
H584       C1400   1.085       .  S
C597        C598   1.401       .  A
C597        C602   1.405       .  A
C597        H607   1.084       .  S
C598        C603   1.481       .  S
C598        C599   1.409       .  A
C599        C600   1.403       .  A
C599        C604   1.506       .  S
C600        C601   1.406       .  A
C600        H605   1.083       .  S
C601        C602   1.416       .  A
C602        C606   1.508       .  S
C603        C608   1.411       .  A
C603        C612   1.400       .  A
C604        H620   1.110       .  S
C604        H621   1.110       .  S
C604        H622   1.111   1_455  S
C606        H617   1.111       .  S
C606        H618   1.108       .  S
C606        H619   1.107       .  S
C608        C609   1.406       .  A
C608        C613   1.507       .  S
C609        C610   1.405       .  A
C609        H614   1.084       .  S
C610        C611   1.417       .  A
C611        C612   1.403       .  A
C611        C615   1.508       .  S
C612        H616   1.084       .  S
C613        H623   1.111       .  S
C613        H624   1.110       .  S
C613        H625   1.111       .  S
C615        H626   1.111       .  S
C615        H627   1.110       .  S
C615        H628   1.109       .  S
C629        C630   1.401       .  A
C629        C634   1.404   1_545  A
C629        H639   1.084   1_545  S
C630        C635   1.481       .  S
C630       C1451   1.411       .  A
C631        C632   1.404       .  A
C631       C1450   1.411       .  A
C631        C636   1.507       .  S
C632        C633   1.404       .  A
C632        H637   1.083       .  S
C633       C1454   1.416       .  A
C634       C1453   1.415       .  A
C634        C638   1.508       .  S
C635        C640   1.413       .  A
C635        C644   1.399       .  A
C636        H652   1.110       .  S
C636        H654   1.111       .  S
C636       H1473   1.109       .  S
C638        H649   1.108       .  S
C638        H650   1.111       .  S
C638        H651   1.110       .  S
C640        C641   1.408       .  A
C640        C645   1.506       .  S
C641        C642   1.403       .  A
C641        H646   1.084       .  S
C642        C643   1.416       .  A
C643        C644   1.402       .  A
C643        C647   1.508       .  S
C644       H1468   1.084   1_545  S
C645        H655   1.111       .  S
C645        H656   1.110       .  S
C645        H657   1.109       .  S
C647        H658   1.109       .  S
C647        H659   1.110       .  S
C647       H1480   1.111   1_545  S
H648       C1464   1.084       .  S
H653       C1456   1.110       .  S
H660       C1467   1.111       .  S
C661        C662   1.400       .  A
C661        C666   1.403       .  A
C661        H671   1.084       .  S
C662        C667   1.477       .  S
C662        C663   1.410       .  A
C663        C664   1.402       .  A
C663        C668   1.507       .  S
C664        C665   1.403       .  A
C664        H669   1.084       .  S
C665        C666   1.417       .  A
C666        C670   1.509       .  S
C667        C672   1.409       .  A
C667        C676   1.401       .  A
C668        H684   1.108       .  S
C668        H685   1.109       .  S
C668        H686   1.111       .  S
C670        H681   1.111       .  S
C670        H682   1.110       .  S
C670        H683   1.107       .  S
C672        C673   1.401       .  A
C672        C677   1.506       .  S
C673        C674   1.405       .  A
C673        H678   1.084       .  S
C674        C675   1.416       .  A
C675        C676   1.402       .  A
C675        C679   1.506       .  S
C676        H680   1.084       .  S
C677        H687   1.111       .  S
C677        H688   1.110       .  S
C677        H689   1.110       .  S
C679        H690   1.110       .  S
C679        H691   1.108       .  S
C679        H692   1.110       .  S
C693        C698   1.401       .  A
C693       C2334   1.400       .  A
C693        H703   1.085       .  S
C694        C699   1.479       .  S
C694        C695   1.410       .  A
C694       C2333   1.400       .  A
C695        C696   1.404       .  A
C695        C700   1.506       .  S
C696        C697   1.406       .  A
C696        H701   1.084       .  S
C697       C1788   1.488       .  S
C697       C2338   1.417       .  A
C698       C2337   1.417   1_655  A
C698        C702   1.506       .  S
C699        C704   1.411       .  A
C699        C708   1.401       .  A
C700        H716   1.110       .  S
C700        H717   1.109       .  S
C700        H718   1.111       .  S
C702        H713   1.110       .  S
C702        H714   1.110       .  S
C702        H715   1.108       .  S
C704        C705   1.404       .  A
C704        C709   1.508       .  S
C705        C706   1.405       .  A
C705        H710   1.084       .  S
C706        C707   1.415       .  A
C707        C708   1.404       .  A
C707        C711   1.508       .  S
C708        H712   1.084       .  S
C709        H721   1.109       .  S
C709       H2359   1.111       .  S
C709       H2360   1.108       .  S
C711        H722   1.111       .  S
C711        H723   1.109       .  S
C711        H724   1.111       .  S
H719       C2349   1.111       .  S
H720       C2349   1.108       .  S
C725        C726   1.399       .  A
C725        C730   1.403       .  A
C725        H735   1.084       .  S
C726        C731   1.483       .  S
C726        C727   1.413       .  A
C727        C728   1.407       .  A
C727        C732   1.506       .  S
C728        C729   1.402       .  A
C728        H733   1.084       .  S
C729        C730   1.417       .  A
C730        C734   1.509       .  S
C731        C736   1.411       .  A
C731        C740   1.401       .  A
C732        H748   1.110       .  S
C732        H749   1.109       .  S
C732        H750   1.111       .  S
C734        H745   1.110       .  S
C734        H746   1.111       .  S
C734        H747   1.110       .  S
C736        C737   1.404       .  A
C736        C741   1.507       .  S
C737        C738   1.405       .  A
C737        H742   1.083       .  S
C738        C739   1.416       .  A
C739        C740   1.405       .  A
C739        C743   1.508       .  S
C740        H744   1.084       .  S
C741        H751   1.111       .  S
C741        H752   1.110       .  S
C741        H753   1.109       .  S
C743        H754   1.111       .  S
C743        H755   1.110       .  S
C743        H756   1.108       .  S
C757        C758   1.405       .  A
C757        C762   1.409       .  A
C757        H767   1.084       .  S
C758        C763   1.490       .  S
C758        C759   1.413       .  A
C759        C760   1.404       .  A
C759        C764   1.509       .  S
C760        C761   1.407       .  A
C760        H765   1.084       .  S
C761        C762   1.416       .  A
C762        C766   1.507       .  S
C763        C768   1.414       .  A
C763        C772   1.403       .  A
C764        H780   1.109       .  S
C764        H781   1.111       .  S
C764        H782   1.111       .  S
C766        H777   1.111       .  S
C766        H778   1.110       .  S
C766        H779   1.109       .  S
C768        C769   1.406       .  A
C768        C773   1.507       .  S
C769        C770   1.405       .  A
C769        H774   1.084       .  S
C770        C771   1.416       .  A
C771        C772   1.405       .  A
C771        C775   1.508       .  S
C772        H776   1.084       .  S
C773        H783   1.111       .  S
C773        H784   1.109       .  S
C773        H785   1.111       .  S
C775        H786   1.111       .  S
C775        H787   1.108       .  S
C775       H1608   1.110       .  S
H788       C1595   1.110       .  S
C789        C790   1.401       .  A
C789        C794   1.403       .  A
C789        H799   1.085       .  S
C790        C795   1.477       .  S
C790        C791   1.410       .  A
C791        C792   1.400       .  A
C791        C796   1.507       .  S
C792        C793   1.403       .  A
C792        H797   1.084       .  S
C793        C794   1.416       .  A
C794        C798   1.508       .  S
C795        C800   1.411       .  A
C795       C2444   1.400       .  A
C796        H812   1.110       .  S
C796        H813   1.110       .  S
C796        H814   1.111       .  S
C798        H809   1.110       .  S
C798        H811   1.107       .  S
C798       H2450   1.111       .  S
C800        C801   1.402       .  A
C800        C805   1.506       .  S
C801       C2442   1.402       .  A
C801        H806   1.084       .  S
C802        C803   1.414       .  A
C802       C2441   1.402   1_455  A
C803        C804   1.399       .  A
C803        C807   1.505       .  S
C804       C2435   1.400   1_455  A
C804        H808   1.084       .  S
C805        H815   1.111       .  S
C805        H816   1.110       .  S
C805        H817   1.110       .  S
C807        H818   1.110       .  S
C807        H819   1.107       .  S
C807        H820   1.110       .  S
H810       C2438   1.111       .  S
C821        N822   1.356       .  A
C821        N826   1.359       .  A
C821       C1613   1.473       .  S
N822        C823   1.355       .  A
C823        N824   1.354       .  A
C823        C865   1.458       .  S
N824        C825   1.356       .  A
C825        N826   1.359       .  A
C825        C922   1.461       .  S
C827        N828   1.361       .  A
C827        N832   1.363       .  A
C827       C1581   1.485       .  S
N828        C829   1.357       .  A
C829        N830   1.355       .  A
C829        C934   1.463       .  S
N830        C831   1.356       .  A
C831        N832   1.361       .  A
C831        C853   1.466       .  S
C833        N834   1.361       .  A
C833        N838   1.360       .  A
C833       C1549   1.477       .  S
N834        C835   1.359       .  A
C835        N836   1.357       .  A
C835        C923   1.466       .  S
N836        C837   1.356       .  A
C837        N838   1.358       .  A
C837        C888   1.465       .  S
C839        N840   1.360       .  A
C839        N844   1.357       .  A
C839       C1526   1.478       .  S
N840        C841   1.360       .  A
C841        N842   1.356       .  A
C841        C957   1.466       .  S
N842        C843   1.356       .  A
C843        N844   1.356       .  A
C843        C854   1.460       .  S
N845        N846   1.324       .  A
N845       N2491   1.316       .  A
N845       Mn874   2.209   1_655  S
N846       C2493   1.354       .  A
N847       N2489   1.317       .  A
N847        N848   1.319       .  A
N848        C854   1.351       .  A
N849       N2487   1.317       .  A
N849        N850   1.319       .  A
N850       C2494   1.351       .  A
N851       N2485   1.316       .  A
N851        N852   1.319       .  A
N851       Mn863   2.199       .  S
N852        C853   1.350       .  A
C853       N2486   1.354       .  A
C854       N2490   1.351       .  A
N855       N2501   1.315       .  A
N855        N856   1.322       .  A
N856       C2504   1.353       .  A
N857        N858   1.320       .  A
N857       N2499   1.317       .  A
N857       Mn863   2.205       .  S
N858        C865   1.352       .  A
N859       N2497   1.317       .  A
N859        N860   1.317       .  A
N859       Mn885   2.187   1_655  S
N860       C2505   1.350       .  A
N861       N2495   1.315       .  A
N861        N862   1.319       .  A
N862        C864   1.350       .  A
Mn863     Cl2527   2.524       .  S
C864       N2496   1.353       .  A
C864        C900   1.463       .  S
C865       N2500   1.350       .  A
N866        N867   1.324       .  A
N866        N872   1.316       .  A
N867        C875   1.354       .  A
N868        N870   1.317       .  A
N868        N869   1.320       .  A
N868       Mn886   2.212       .  S
N869        C876   1.353       .  A
N870        N871   1.320       .  A
N870       Mn874   2.194       .  S
N871        C876   1.351       .  A
N872        N873   1.318       .  A
N873        C875   1.349       .  A
Mn874      Cl887   2.572       .  S
C875        C910   1.464       .  S
C876        C892   1.464       .  S
N877        N878   1.324       .  A
N877        N883   1.315       .  A
N877       Mn885   2.208       .  S
N878        C888   1.354       .  A
N879        N880   1.321       .  A
N879        N881   1.316       .  A
N880        C889   1.354       .  A
N881        N882   1.318       .  A
N882        C889   1.350       .  A
N883        N884   1.318       .  A
N883       Mn886   2.192       .  S
N884        C888   1.349       .  A
Mn885      Cl887   2.568       .  S
Mn886      Cl887   2.521       .  S
Cl887     Mn2503   2.524   1_455  S
C889        C906   1.463       .  S
C890        N891   1.360       .  A
C890        N895   1.357       .  A
C890       C1485   1.474       .  S
N891        C892   1.360       .  A
C892        N893   1.356       .  A
N893        C894   1.355       .  A
C894        N895   1.356       .  A
C894        C933   1.461       .  S
C896        N897   1.361       .  A
C896        N901   1.359       .  A
C896       C1462   1.479       .  S
N897        C898   1.360       .  A
C898        N899   1.357       .  A
C898        C945   1.464       .  S
N899        C900   1.355       .  A
C900        N901   1.356       .  A
C902        N903   1.360       .  A
C902        N907   1.357       .  A
C902       C1430   1.480       .  S
N903        C904   1.361       .  A
C904        N905   1.357       .  A
C904        C944   1.466       .  S
N905        C906   1.356       .  A
C906        N907   1.356       .  A
C908        N909   1.361       .  A
C908        N913   1.361       .  A
C908       C1389   1.480       .  S
N909        C910   1.359       .  A
C910        N911   1.357       .  A
N911        C912   1.356       .  A
C912        N913   1.357       .  A
C912        C958   1.465       .  S
N914        N915   1.319       .  A
N914        N920   1.317       .  A
N914       Mn943   2.191       .  S
N915        C922   1.351       .  A
N916        N918   1.316       .  A
N916        N917   1.319       .  A
N916       Mn932   2.196       .  S
N917        C923   1.350       .  A
N918        N919   1.324       .  A
N918       Mn943   2.211       .  S
N919        C923   1.354       .  A
N920        N921   1.319       .  A
N920       Mn932   2.208       .  S
N921        C922   1.352       .  A
N924        N930   1.317       .  A
N924        N925   1.319       .  A
N924       Mn954   2.193       .  S
N925        C933   1.351       .  A
N926        N927   1.319       .  A
N926        N928   1.315       .  A
N926       Mn932   2.196       .  S
N927        C934   1.350       .  A
N928        N929   1.322       .  A
N928       Mn954   2.203       .  S
N929        C934   1.353       .  A
N930        N931   1.320       .  A
N930       Mn932   2.208       .  S
N931        C933   1.352       .  A
Mn932      Cl956   2.522       .  S
N935        N936   1.321       .  A
N935        N941   1.317       .  A
N935       Mn943   2.195       .  S
N936        C944   1.352       .  A
N937        N939   1.315       .  A
N937        N938   1.318       .  A
N937       Mn955   2.192       .  S
N938        C945   1.349       .  A
N939        N940   1.324       .  A
N939       Mn943   2.208       .  S
N940        C945   1.354       .  A
N941        N942   1.320       .  A
N941       Mn955   2.214       .  S
N942        C944   1.353       .  A
Mn943      Cl956   2.572       .  S
N946        N947   1.320       .  A
N946        N952   1.316       .  A
N946       Mn954   2.190       .  S
N947        C957   1.351       .  A
N948        N949   1.319       .  A
N948        N950   1.316       .  A
N948       Mn955   2.193       .  S
N949        C958   1.349       .  A
N950        N951   1.323       .  A
N950       Mn954   2.210       .  S
N951        C958   1.354       .  A
N952        N953   1.321       .  A
N952       Mn955   2.216       .  S
N953        C957   1.354       .  A
Mn954      Cl956   2.570       .  S
Mn955      Cl956   2.520       .  S
C959       C1558   1.492       .  S
C959        C960   1.417       .  A
C959        C964   1.406       .  A
C960       C1453   1.485       .  S
C960        C961   1.403       .  A
C961        C962   1.400       .  A
C962       C1325   1.487       .  S
C962        C963   1.416       .  A
C963       C1366   1.489       .  S
C963        C964   1.404       .  A
C964        H965   1.084       .  S
C967       C1494   1.488       .  S
C967        C968   1.417       .  A
C967        C972   1.402       .  A
C968       C3157   1.487       .  S
C968       C2609   1.404       .  A
C969       C2608   1.404       .  A
C969       C2610   1.404   1_554  A
C969        H974   1.084       .  S
C970       C2933   1.484   1_455  S
C970       C2609   1.404   1_556  A
C970        C971   1.416       .  A
C971       C1261   1.488       .  S
C971        C972   1.404   1_556  A
C972        H973   1.085       .  S
C975       C1622   1.480       .  S
C975        C976   1.415       .  A
C975        C980   1.400       .  A
C976       C1421   1.492       .  S
C976        C977   1.403       .  A
C977        C978   1.407       .  A
C977        H982   1.084       .  S
C978       C1197   1.485       .  S
C978        C979   1.417       .  A
C979       C1238   1.487       .  S
C979        C980   1.401       .  A
C980       H2621   1.085   1_455  S
H981       C2620   1.085       .  S
C983        C984   1.418       .  A
C983        C988   1.405       .  A
C984       C1590   1.491       .  S
C984        C985   1.406       .  A
C985        C986   1.403   1_554  A
C985        H990   1.084       .  S
C986       C1165   1.485       .  S
C986        C987   1.414       .  A
C987       C1142   1.486   1_565  S
C987        C988   1.401   1_556  A
C991        N992   1.359       .  A
C991        N996   1.357       .  A
C991       C1174   1.479       .  S
N992        C993   1.360       .  A
C993        N994   1.356       .  A
C993       C1092   1.462       .  S
N994        C995   1.355       .  A
C995        N996   1.356       .  A
C995       C1047   1.460       .  S
C997        N998   1.360       .  A
C997       N1002   1.362       .  A
C997       C1302   1.479       .  S
N998        C999   1.359       .  A
C999       N1000   1.356       .  A
C999       C1046   1.463       .  S
N1000      C1001   1.356       .  A
C1001      N1002   1.358       .  A
C1001      C1115   1.465       .  S
C1003      N1004   1.359       .  A
C1003      N1008   1.357       .  A
C1003      C1133   1.477       .  S
N1004      C1005   1.358       .  A
C1005      N1006   1.357       .  A
C1005      C1114   1.463       .  S
N1006      C1007   1.356       .  A
C1007      N1008   1.357       .  A
C1007      C1071   1.462       .  S
C1009      N1010   1.362       .  A
C1009      N1014   1.363       .  A
C1009      C1270   1.488       .  S
N1010      C1011   1.357       .  A
C1011      N1012   1.355       .  A
C1011      C1093   1.466       .  S
N1012      C1013   1.356       .  A
C1013      N1014   1.360       .  A
C1013      C1070   1.465       .  S
C1015      N1016   1.361       .  A
C1015      N1020   1.359       .  A
C1015      C1206   1.475       .  S
N1016      C1017   1.358       .  A
C1017      N1018   1.356       .  A
C1017      C1057   1.464       .  S
N1018      C1019   1.356       .  A
C1019      N1020   1.358       .  A
C1019      C1128   1.462       .  S
C1021      N1022   1.360       .  A
C1021      N1026   1.358       .  A
C1021      C1334   1.477       .  S
N1022      C1023   1.359       .  A
C1023      N1024   1.357       .  A
C1023      C1036   1.464       .  S
N1024      C1025   1.355       .  A
C1025      N1026   1.356       .  A
C1025      C1127   1.462       .  S
N1027      N1028   1.324       .  A
N1027      N1033   1.315       .  A
N1027     Mn1056   2.214       .  S
N1028      C1035   1.355       .  A
N1029      N1031   1.317       .  A
N1029      N1030   1.319       .  A
N1029     Mn1045   2.210       .  S
N1030      C1036   1.352       .  A
N1031      N1032   1.321       .  A
N1031     Mn1056   2.198       .  S
N1032      C1036   1.352       .  A
N1033      N1034   1.318       .  A
N1033     Mn1045   2.190       .  S
N1034      C1035   1.349       .  A
C1035      C1076   1.466       .  S
N1037      N1043   1.315       .  A
N1037      N1038   1.323       .  A
N1037     Mn1067   2.204       .  S
N1038      C1046   1.353       .  A
N1039      N1040   1.321       .  A
N1039      N1041   1.316       .  A
N1039     Mn1045   2.210       .  S
N1040      C1047   1.353       .  A
N1041      N1042   1.317       .  A
N1041     Mn1067   2.186       .  S
N1042      C1047   1.349       .  A
N1043      N1044   1.318       .  A
N1043     Mn1045   2.193       .  S
N1044      C1046   1.350       .  A
Mn1045    Cl1069   2.522       .  S
N1048      N1049   1.324       .  A
N1048      N1054   1.316       .  A
N1048     Mn1056   2.213       .  S
N1049      C1057   1.355       .  A
N1050      N1052   1.317       .  A
N1050      N1051   1.319       .  A
N1050     Mn1068   2.206       .  S
N1051      C1058   1.352       .  A
N1052      N1053   1.319       .  A
N1052     Mn1056   2.195       .  S
N1053      C1058   1.351       .  A
N1054      N1055   1.317       .  A
N1054     Mn1068   2.190       .  S
N1055      C1057   1.348       .  A
Mn1056    Cl1069   2.572       .  S
C1058      C1082   1.461       .  S
N1059      N1060   1.323       .  A
N1059      N1065   1.315       .  A
N1059     Mn1067   2.205       .  S
N1060      C1070   1.354       .  A
N1061      N1062   1.321       .  A
N1061      N1063   1.316       .  A
N1061     Mn1068   2.211       .  S
N1062      C1071   1.353       .  A
N1063      N1064   1.318       .  A
N1063     Mn1067   2.188       .  S
N1064      C1071   1.350       .  A
N1065      N1066   1.318       .  A
N1065     Mn1068   2.194       .  S
N1066      C1070   1.350       .  A
Mn1067    Cl1069   2.569       .  S
Mn1068    Cl1069   2.521       .  S
C1072      N1073   1.363       .  A
C1072      N1077   1.360       .  A
C1072      C1229   1.480       .  S
N1073      C1074   1.361       .  A
C1074      N1075   1.357       .  A
C1074      C1104   1.468       .  S
N1075      C1076   1.356       .  A
C1076      N1077   1.357       .  A
C1078      N1079   1.360       .  A
C1078      N1083   1.357       .  A
C1078      C1357   1.477       .  S
N1079      C1080   1.359       .  A
C1080      N1081   1.355       .  A
C1080      C1103   1.465       .  S
N1081      C1082   1.356       .  A
C1082      N1083   1.357       .  A
N1084      N1085   1.319       .  A
N1084      N1090   1.317       .  A
N1084     Mn2753   2.191       .  S
N1085      C1092   1.350       .  A
N1086      N1088   1.316       .  A
N1086      N1087   1.318       .  A
N1086     Mn1102   2.194       .  S
N1087      C1093   1.349       .  A
N1088      N1089   1.324       .  A
N1088     Mn1113   2.210       .  S
N1089      C1093   1.354       .  A
N1090      N1091   1.320       .  A
N1090     Mn2742   2.213       .  S
N1091      C1092   1.353       .  A
N1094      N1100   1.317       .  A
N1094      N1095   1.320       .  A
N1094     Mn1124   2.192       .  S
N1095      C1103   1.351       .  A
N1096      N1097   1.319       .  A
N1096      N1098   1.315       .  A
N1096     Mn2742   2.196       .  S
N1097      C1104   1.350       .  A
N1098      N1099   1.324       .  A
N1098     Mn2764   2.210       .  S
N1099      C1104   1.355       .  A
N1100      N1101   1.320       .  A
N1100     Mn1102   2.215       .  S
N1101      C1103   1.354       .  A
Mn1102     N2730   2.213   1_455  S
Mn1102     N2736   2.196   1_455  S
Mn1102    Cl1126   2.521       .  S
N1105      N1106   1.320       .  A
N1105      N1111   1.317       .  A
N1106      C1114   1.352       .  A
N1107      N1109   1.315       .  A
N1107      N1108   1.318       .  A
N1107     Mn2765   2.192       .  S
N1108      C1115   1.349       .  A
N1109      N1110   1.324       .  A
N1109     Mn1933   2.211       .  S
N1110      C1115   1.354       .  A
N1111      N1112   1.320       .  A
N1111     Mn1125   2.208       .  S
N1112      C1114   1.352       .  A
Mn1113     N2724   2.190   1_455  S
Mn1113     N1929   2.212   1_465  S
Mn1113    Cl1126   2.572       .  S
N1116      N1117   1.319       .  A
N1116      N1122   1.317       .  A
N1116     Mn1944   2.194       .  S
N1117      C1127   1.351       .  A
N1118      N1119   1.318       .  A
N1118      N1120   1.315       .  A
N1118     Mn1125   2.192       .  S
N1119      C1128   1.349       .  A
N1120      N1121   1.323       .  A
N1121      C1128   1.353       .  A
N1122      N1123   1.320       .  A
N1122     Mn2765   2.208       .  S
N1123      C1127   1.352       .  A
Mn1124     N2738   2.209   1_455  S
Mn1124     N1936   2.192   1_465  S
Mn1124    Cl1126   2.570       .  S
Mn1125     N2747   2.192   1_455  S
Mn1125     N2762   2.208   1_455  S
C1129      C1130   1.401       .  A
C1129      C1134   1.402       .  A
C1129      H1139   1.085       .  S
C1130      C1135   1.479       .  S
C1130      C1131   1.409       .  A
C1131      C1132   1.403       .  A
C1131      C1136   1.506       .  S
C1132      C1133   1.406       .  A
C1132      H1137   1.084       .  S
C1133      C1134   1.417       .  A
C1134      C1138   1.508       .  S
C1135      C1144   1.400       .  A
C1136      H1152   1.110       .  S
C1136      H1153   1.110       .  S
C1136      H1154   1.111       .  S
C1138      H1149   1.110       .  S
C1138      H1150   1.111       .  S
C1138      H1151   1.106       .  S
C1140      C1141   1.403   1_545  A
C1140      C1145   1.506       .  S
C1141      C1142   1.403   1_565  A
C1141      H1146   1.084       .  S
C1143      C1144   1.402       .  A
C1143      C1147   1.507       .  S
C1144      H1148   1.084       .  S
C1145      H1155   1.111   1_545  S
C1145      H1156   1.110   1_545  S
C1145      H1157   1.111       .  S
C1147      H1158   1.110       .  S
C1147      H1159   1.108       .  S
C1147      H1160   1.110       .  S
C1161      C1162   1.401       .  A
C1161      C1166   1.403       .  A
C1161      H1171   1.084       .  S
C1162      C1167   1.482       .  S
C1162      C1163   1.411       .  A
C1163      C1164   1.403       .  A
C1163      C1168   1.506       .  S
C1164      C1165   1.402       .  A
C1164      H1169   1.084       .  S
C1165      C1166   1.416       .  A
C1166      C1170   1.507       .  S
C1167      C1172   1.410       .  A
C1167      C1176   1.403       .  A
C1168      H1184   1.110       .  S
C1168      H1185   1.110       .  S
C1168      H1186   1.111       .  S
C1170      H1181   1.110       .  S
C1170      H1182   1.110       .  S
C1170      H1183   1.108       .  S
C1172      C1173   1.402       .  A
C1172      C1177   1.507       .  S
C1173      C1174   1.405       .  A
C1173      H1178   1.084       .  S
C1174      C1175   1.415       .  A
C1175      C1176   1.406       .  A
C1175      C1179   1.507       .  S
C1176      H1180   1.084       .  S
C1177      H1187   1.111       .  S
C1177      H1188   1.110       .  S
C1177      H1189   1.110       .  S
C1179      H1190   1.111       .  S
C1179      H1191   1.110       .  S
C1179      H1192   1.109       .  S
C1193      C1194   1.400       .  A
C1193      C1198   1.402       .  A
C1193      H1203   1.084       .  S
C1194      C1199   1.480       .  S
C1194      C1195   1.410       .  A
C1195      C1196   1.404       .  A
C1195      C1200   1.506       .  S
C1196      C1197   1.405       .  A
C1196      H1201   1.084       .  S
C1197      C1198   1.418       .  A
C1198      C1202   1.509       .  S
C1199      C1204   1.411       .  A
C1199      C1208   1.399       .  A
C1200      H1216   1.110       .  S
C1200      H1217   1.110       .  S
C1200      H1218   1.111   1_455  S
C1202      H1213   1.110       .  S
C1202      H1214   1.111       .  S
C1202      H1215   1.107       .  S
C1204      C1205   1.406       .  A
C1204      C1209   1.506       .  S
C1205      C1206   1.403       .  A
C1205      H1210   1.084       .  S
C1206      C1207   1.418       .  A
C1207      C1208   1.401       .  A
C1207      C1211   1.509       .  S
C1208      H1212   1.085       .  S
C1209      H1219   1.111       .  S
C1209      H1220   1.110       .  S
C1209      H1221   1.110       .  S
C1211      H1222   1.110       .  S
C1211      H1223   1.107       .  S
C1211      H1224   1.111       .  S
C1225      C1226   1.404       .  A
C1225      C1230   1.408       .  A
C1225      H1235   1.084       .  S
C1226      C1231   1.483       .  S
C1226      C1227   1.411       .  A
C1227      C1228   1.404       .  A
C1227      C1232   1.509       .  S
C1228      C1229   1.405       .  A
C1228      H1233   1.084       .  S
C1229      C1230   1.412       .  A
C1230      C1234   1.506       .  S
C1231      C1236   1.411       .  A
C1231      C2880   1.401       .  A
C1232      H1248   1.110       .  S
C1232      H1249   1.109       .  S
C1232      H1250   1.111       .  S
C1234      H1245   1.111       .  S
C1234      H1246   1.110       .  S
C1234      H1247   1.111       .  S
C1236      C1237   1.405       .  A
C1236      C1241   1.507       .  S
C1237      C2878   1.405       .  A
C1237      H1242   1.084       .  S
C1238      C2877   1.405   1_455  A
C1238      C1239   1.415       .  A
C1239      C1240   1.404       .  A
C1239      C1243   1.506       .  S
C1240      C2871   1.401   1_455  A
C1240      H1244   1.084       .  S
C1241      H1251   1.111       .  S
C1241      H1252   1.110       .  S
C1241      H1253   1.109       .  S
C1243      H1254   1.110       .  S
C1243      H1255   1.107       .  S
C1243      H1256   1.110       .  S
C1257      C1258   1.401       .  A
C1257      C1262   1.402       .  A
C1257      H1267   1.085       .  S
C1258      C1263   1.487       .  S
C1258      C1259   1.413       .  A
C1259      C1260   1.407       .  A
C1259      C1264   1.506       .  S
C1260      C1261   1.404       .  A
C1260      H1265   1.084       .  S
C1261      C1262   1.418       .  A
C1262      C1266   1.509       .  S
C1263      C1268   1.410       .  A
C1263      C1272   1.404       .  A
C1264      H1280   1.110       .  S
C1264      H1281   1.110       .  S
C1264      H1282   1.111       .  S
C1266      H1277   1.111       .  S
C1266      H1278   1.110       .  S
C1266      H1279   1.107   1_556  S
C1268      C1269   1.402       .  A
C1268      C1273   1.508       .  S
C1269      C1270   1.407       .  A
C1269      H1274   1.084       .  S
C1270      C1271   1.419       .  A
C1271      C1272   1.408       .  A
C1271      C1275   1.507       .  S
C1272      H1276   1.084       .  S
C1273      H1283   1.111       .  S
C1273      H1284   1.109       .  S
C1273      H1285   1.111       .  S
C1275      H1286   1.111       .  S
C1275      H1287   1.107       .  S
C1275      H1288   1.110       .  S
C1289      C1290   1.403       .  A
C1289      C1294   1.405       .  A
C1289      H1299   1.084       .  S
C1290      C1295   1.484       .  S
C1290      C1291   1.412       .  A
C1291      C2932   1.403       .  A
C1291      C2936   1.507       .  S
C1292      C2931   1.404   1_455  A
C1292      C2933   1.403   1_455  A
C1292      H1297   1.084       .  S
C1293      C2610   1.484       .  S
C1293      C2932   1.403       .  A
C1293      C1294   1.415       .  A
C1294      C1298   1.506       .  S
C1295      C1300   1.413       .  A
C1295      C1304   1.399       .  A
C1296      C2931   1.507       .  S
C1296      H1312   1.110   1_655  S
C1296      H2953   1.110       .  S
C1296      H1314   1.111   1_655  S
C1298      H1309   1.110       .  S
C1298      H1310   1.110       .  S
C1298      H1311   1.107       .  S
C1300      C1301   1.409       .  A
C1300      C1305   1.505       .  S
C1301      C1302   1.405       .  A
C1301      H1306   1.084       .  S
C1302      C1303   1.419       .  A
C1303      C1304   1.400       .  A
C1303      C1307   1.510       .  S
C1304      H1308   1.085       .  S
C1305      H1315   1.111       .  S
C1305      H1316   1.110       .  S
C1305      H1317   1.110       .  S
C1307      H1318   1.111       .  S
C1307      H1319   1.106       .  S
C1307      H2960   1.110       .  S
H1313      C2936   1.110       .  S
H1320      C2947   1.110   1_455  S
C1321      C1326   1.402       .  A
C1321      H1331   1.084       .  S
C1322      C1327   1.476       .  S
C1322      C1323   1.410       .  A
C1323      C1324   1.402       .  A
C1323      C1328   1.507       .  S
C1324      H1329   1.084       .  S
C1325      C1326   1.417       .  A
C1326      C1330   1.507       .  S
C1327      C1332   1.410       .  A
C1327      C1336   1.398       .  A
C1328      H1344   1.110       .  S
C1328      H1345   1.109       .  S
C1328      H1346   1.111       .  S
C1330      H1341   1.110       .  S
C1330      H1342   1.110       .  S
C1330      H1343   1.108       .  S
C1332      C1333   1.403       .  A
C1332      C1337   1.508       .  S
C1333      C1334   1.404       .  A
C1333      H1338   1.084       .  S
C1334      C1335   1.419       .  A
C1335      C1336   1.401       .  A
C1335      C1339   1.509       .  S
C1336      H1340   1.084       .  S
C1337      H1347   1.111       .  S
C1337      H1349   1.109       .  S
C1339      H1350   1.110       .  S
C1339      H1351   1.106       .  S
C1339      H1352   1.111       .  S
C1353      C1354   1.399       .  A
C1353      C1358   1.402       .  A
C1353      H1363   1.084       .  S
C1354      C1359   1.478       .  S
C1354      C1355   1.411       .  A
C1355      C1356   1.405       .  A
C1355      C1360   1.508       .  S
C1356      C1357   1.406       .  A
C1356      H1361   1.084       .  S
C1357      C1358   1.417       .  A
C1358      C1362   1.509       .  S
C1359      C1364   1.410       .  A
C1359      C1368   1.399       .  A
C1360      H1376   1.108       .  S
C1360      H1377   1.109       .  S
C1360      H1378   1.111       .  S
C1362      H1373   1.111       .  S
C1362      H1374   1.110       .  S
C1362      H1375   1.106       .  S
C1364      C1365   1.404       .  A
C1364      C1369   1.506       .  S
C1365      C1366   1.405       .  A
C1365      H1370   1.084       .  S
C1366      C1367   1.418       .  A
C1367      C1368   1.401       .  A
C1367      C1371   1.507   1_565  S
C1368      H1372   1.085       .  S
C1369      H1379   1.111       .  S
C1369      H1380   1.110       .  S
C1369      H1381   1.109       .  S
C1371      H1383   1.108       .  S
C1371      H1384   1.110       .  S
C1385      C1386   1.404       .  A
C1385      C1390   1.407       .  A
C1385      H1395   1.084       .  S
C1386      C1391   1.481       .  S
C1386      C1387   1.410       .  A
C1387      C1388   1.402       .  A
C1388      C1389   1.405       .  A
C1388      H1393   1.084       .  S
C1389      C1390   1.414       .  A
C1390      C1394   1.507       .  S
C1391      C1396   1.411       .  A
C1391      C1400   1.401       .  A
C1392      H1408   1.110       .  S
C1392      H1409   1.111       .  S
C1392      H1410   1.111       .  S
C1394      H1405   1.111       .  S
C1394      H1406   1.110       .  S
C1394      H1407   1.109       .  S
C1396      C1397   1.403       .  A
C1396      C1401   1.506       .  S
C1397      C1398   1.404       .  A
C1397      H1402   1.084       .  S
C1399      C1403   1.508       .  S
C1401      H1411   1.111       .  S
C1401      H1412   1.110       .  S
C1401      H1413   1.110       .  S
C1403      H1414   1.110       .  S
C1403      H1415   1.107       .  S
C1403      H1416   1.111       .  S
C1417      C1418   1.401       .  A
C1417      C1422   1.405       .  A
C1417      H1427   1.084       .  S
C1418      C1423   1.481       .  S
C1418      C1419   1.409       .  A
C1419      C1420   1.403       .  A
C1419      C1424   1.506       .  S
C1420      C1421   1.407       .  A
C1420      H1425   1.083       .  S
C1421      C1422   1.416       .  A
C1422      C1426   1.508       .  S
C1423      C1428   1.411       .  A
C1423      C1432   1.400       .  A
C1424      H1440   1.110       .  S
C1424      H1441   1.110       .  S
C1424      H1442   1.111   1_455  S
C1426      H1437   1.111       .  S
C1426      H1438   1.108       .  S
C1426      H1439   1.107       .  S
C1428      C1429   1.405       .  A
C1428      C1433   1.507       .  S
C1429      C1430   1.404       .  A
C1429      H1434   1.084       .  S
C1430      C1431   1.416       .  A
C1431      C1432   1.404       .  A
C1431      C1435   1.508       .  S
C1432      H1436   1.084       .  S
C1433      H1443   1.111       .  S
C1433      H1444   1.110       .  S
C1433      H1445   1.110       .  S
C1435      H1446   1.111       .  S
C1435      H1447   1.110       .  S
C1435      H1448   1.109       .  S
C1449      C1450   1.401       .  A
C1449      C1454   1.405       .  A
C1449      H1459   1.084       .  S
C1450      C1455   1.482       .  S
C1451      C1452   1.404       .  A
C1451      C1456   1.506       .  S
C1452      C1453   1.404   1_545  A
C1452      H1457   1.084       .  S
C1454      C1458   1.508       .  S
C1455      C1460   1.413       .  A
C1455      C1464   1.398       .  A
C1456      H1472   1.110       .  S
C1456      H1474   1.111       .  S
C1458      H1469   1.108       .  S
C1458      H1470   1.111       .  S
C1458      H1471   1.110       .  S
C1460      C1461   1.408       .  A
C1460      C1465   1.506       .  S
C1461      C1462   1.403       .  A
C1461      H1466   1.084       .  S
C1462      C1463   1.418       .  A
C1463      C1464   1.402       .  A
C1463      C1467   1.509       .  S
C1465      H1475   1.111       .  S
C1465      H1476   1.110       .  S
C1465      H1477   1.109       .  S
C1467      H1478   1.109       .  S
C1467      H1479   1.110       .  S
C1481      C1482   1.400       .  A
C1481      C1486   1.403       .  A
C1481      H1491   1.084       .  S
C1482      C1487   1.479       .  S
C1482      C1483   1.411       .  A
C1483      C1484   1.403       .  A
C1483      C1488   1.507       .  S
C1484      C1485   1.402       .  A
C1484      H1489   1.084       .  S
C1485      C1486   1.418       .  A
C1486      C1490   1.509       .  S
C1487      C1492   1.409       .  A
C1487      C1496   1.401       .  A
C1488      H1504   1.108       .  S
C1488      H1505   1.109       .  S
C1488      H1506   1.111       .  S
C1490      H1501   1.111       .  S
C1490      H1502   1.110       .  S
C1490      H1503   1.107       .  S
C1492      C1493   1.402       .  A
C1492      C1497   1.506       .  S
C1493      C1494   1.406       .  A
C1493      H1498   1.084       .  S
C1494      C1495   1.417       .  A
C1495      C1496   1.403       .  A
C1495      C1499   1.506       .  S
C1496      H1500   1.084       .  S
C1497      H1507   1.111       .  S
C1497      H1508   1.110       .  S
C1497      H1509   1.110       .  S
C1499      H1510   1.110       .  S
C1499      H1511   1.108       .  S
C1499      H1512   1.110       .  S
C1513      C3154   1.400       .  A
C1513      C1518   1.401       .  A
C1513      H1523   1.085       .  S
C1514      C1519   1.479       .  S
C1514      C3153   1.400       .  A
C1514      C1515   1.410       .  A
C1515      C1516   1.404       .  A
C1515      C1520   1.506       .  S
C1516      C1517   1.405       .  A
C1516      H1521   1.084       .  S
C1517      C2608   1.487       .  S
C1517      C3158   1.417       .  A
C1518      C3157   1.417   1_655  A
C1518      C1522   1.506       .  S
C1519      C1524   1.411       .  A
C1519      C1528   1.401       .  A
C1520      H1536   1.110       .  S
C1520      H1537   1.109       .  S
C1520      H1538   1.111       .  S
C1522      H1533   1.110       .  S
C1522      H1534   1.110       .  S
C1522      H1535   1.108       .  S
C1524      C1525   1.404       .  A
C1524      C1529   1.507       .  S
C1525      C1526   1.405       .  A
C1525      H1530   1.084       .  S
C1526      C1527   1.415       .  A
C1527      C1528   1.403       .  A
C1527      C1531   1.507       .  S
C1528      H1532   1.084       .  S
C1529      H3179   1.111       .  S
C1529      H3180   1.108       .  S
C1529      H1541   1.109       .  S
C1531      H1542   1.111       .  S
C1531      H1543   1.109       .  S
C1531      H1544   1.111       .  S
H1539      C3169   1.111       .  S
H1540      C3169   1.108       .  S
C1545      C1546   1.400       .  A
C1545      C1550   1.403       .  A
C1545      H1555   1.084       .  S
C1546      C1551   1.484       .  S
C1546      C1547   1.413       .  A
C1547      C1548   1.408       .  A
C1547      C1552   1.505       .  S
C1548      C1549   1.402       .  A
C1548      H1553   1.084       .  S
C1549      C1550   1.415       .  A
C1550      C1554   1.508       .  S
C1551      C1556   1.411       .  A
C1551      C1560   1.401       .  A
C1552      H1568   1.110       .  S
C1552      H1569   1.110       .  S
C1552      H1570   1.111       .  S
C1554      H1565   1.111       .  S
C1554      H1566   1.111       .  S
C1554      H1567   1.109       .  S
C1556      C1557   1.404       .  A
C1556      C1561   1.506       .  S
C1557      C1558   1.405       .  A
C1557      H1562   1.083       .  S
C1558      C1559   1.417       .  A
C1559      C1560   1.406       .  A
C1559      C1563   1.508       .  S
C1560      H1564   1.084       .  S
C1561      H1571   1.111       .  S
C1561      H1572   1.110       .  S
C1561      H1573   1.110       .  S
C1563      H1574   1.111       .  S
C1563      H1575   1.110       .  S
C1563      H1576   1.108       .  S
C1577      C1578   1.405       .  A
C1577      C1582   1.409       .  A
C1577      H1587   1.084       .  S
C1578      C1583   1.489       .  S
C1578      C1579   1.412       .  A
C1579      C1580   1.403       .  A
C1579      C1584   1.509       .  S
C1580      C1581   1.406       .  A
C1580      H1585   1.084       .  S
C1581      C1582   1.414       .  A
C1582      C1586   1.507       .  S
C1583      C1588   1.414       .  A
C1583      C1592   1.403       .  A
C1584      H1600   1.109       .  S
C1584      H1601   1.111       .  S
C1584      H1602   1.111       .  S
C1586      H1597   1.111       .  S
C1586      H1598   1.111       .  S
C1586      H1599   1.109       .  S
C1588      C1589   1.406       .  A
C1588      C1593   1.507       .  S
C1589      C1590   1.405       .  A
C1589      H1594   1.084       .  S
C1590      C1591   1.416       .  A
C1591      C1592   1.405       .  A
C1591      C1595   1.508       .  S
C1592      H1596   1.084       .  S
C1593      H1603   1.111       .  S
C1593      H1604   1.109       .  S
C1593      H1605   1.111       .  S
C1595      H1606   1.111       .  S
C1595      H1607   1.108       .  S
C1609      C1610   1.402       .  A
C1609      C1614   1.403       .  A
C1609      H1619   1.085       .  S
C1610      C1615   1.476       .  S
C1610      C1611   1.410       .  A
C1611      C1612   1.400       .  A
C1611      C1616   1.507       .  S
C1612      C1613   1.403       .  A
C1612      H1617   1.084       .  S
C1613      C1614   1.416       .  A
C1614      C1618   1.507       .  S
C1615      C1620   1.411       .  A
C1615      C3264   1.400       .  A
C1616      H1632   1.110       .  S
C1616      H1633   1.110       .  S
C1616      H1634   1.111       .  S
C1618      H1629   1.110       .  S
C1618      H3270   1.111       .  S
C1618      H1631   1.107       .  S
C1620      C1621   1.402       .  A
C1620      C1625   1.506       .  S
C1621      C3262   1.403       .  A
C1621      H1626   1.084       .  S
C1622      C3261   1.403   1_455  A
C1622      C1623   1.414       .  A
C1623      C1624   1.399       .  A
C1623      C1627   1.505       .  S
C1624      C3255   1.400   1_455  A
C1624      H1628   1.084       .  S
C1625      H1635   1.111       .  S
C1625      H1636   1.110       .  S
C1625      H1637   1.110       .  S
C1627      H1638   1.110       .  S
C1627      H1639   1.107       .  S
C1627      H1640   1.110       .  S
H1630      C3258   1.111       .  S
C1641      N1642   1.357       .  A
C1641      N1646   1.359       .  A
C1641      C2433   1.474       .  S
N1642      C1643   1.356       .  A
C1643      N1644   1.354       .  A
C1643      C1685   1.459       .  S
N1644      C1645   1.356       .  A
C1645      N1646   1.359       .  A
C1645      C1742   1.461       .  S
C1647      N1648   1.362       .  A
C1647      N1652   1.363       .  A
C1647      C2401   1.488       .  S
N1648      C1649   1.357       .  A
C1649      N1650   1.355       .  A
C1649      C1754   1.464       .  S
N1650      C1651   1.356       .  A
C1651      N1652   1.360       .  A
C1651      C1673   1.467       .  S
C1653      N1654   1.362       .  A
C1653      N1658   1.359       .  A
C1653      C2369   1.478       .  S
N1654      C1655   1.360       .  A
C1655      N1656   1.356       .  A
C1655      C1743   1.466       .  S
N1656      C1657   1.355       .  A
C1657      N1658   1.356       .  A
C1657      C1708   1.462       .  S
C1659      N1660   1.360       .  A
C1659      N1664   1.357       .  A
C1659      C2346   1.477       .  S
N1660      C1661   1.359       .  A
C1661      N1662   1.356       .  A
C1661      C1777   1.464       .  S
N1662      C1663   1.356       .  A
C1663      N1664   1.356       .  A
C1663      C1674   1.459       .  S
N1665      N1666   1.324       .  A
N1665     Mn1694   2.209       .  S
N1667      N1668   1.319       .  A
N1667     Mn2503   2.201   1_545  S
N1668      C1674   1.351       .  A
N1669      N1670   1.319       .  A
N1669     Mn2514   2.194   1_545  S
N1671      N1672   1.319       .  A
N1671     Mn1683   2.199       .  S
N1672      C1673   1.350       .  A
N1675      N1676   1.323       .  A
N1675     Mn2525   2.208   1_545  S
N1677      N1678   1.320       .  A
N1677     Mn1683   2.208       .  S
N1678      C1685   1.353       .  A
N1679      N1680   1.317       .  A
N1679     Mn1705   2.185       .  S
N1681      N1682   1.319       .  A
N1681     Mn2503   2.197   1_545  S
N1682      C1684   1.350       .  A
Mn1683     N2487   2.202       .  S
Mn1683     N2501   2.195       .  S
C1684      C1720   1.465       .  S
N1686      N1687   1.324       .  A
N1686      N1692   1.315       .  A
N1686     Mn2514   2.209   1_545  S
N1687      C1695   1.354       .  A
N1688      N1690   1.317       .  A
N1688      N1689   1.319       .  A
N1688     Mn1706   2.206       .  S
N1689      C1696   1.351       .  A
N1690      N1691   1.321       .  A
N1690     Mn1694   2.196       .  S
N1691      C1696   1.352       .  A
N1692      N1693   1.317       .  A
N1692     Mn2526   2.189   1_545  S
N1693      C1695   1.349       .  A
Mn1694     N2489   2.195       .  S
Mn1694     N2506   2.210       .  S
Mn1694    Cl1707   2.570       .  S
C1695      C1730   1.464       .  S
C1696      C1712   1.463       .  S
N1697      N1698   1.323       .  A
N1697      N1703   1.315       .  A
N1697     Mn1705   2.204       .  S
N1698      C1708   1.354       .  A
N1699      N1700   1.322       .  A
N1699      N1701   1.317       .  A
N1699     Mn2526   2.215   1_545  S
N1700      C1709   1.354       .  A
N1701      N1702   1.319       .  A
N1701     Mn2525   2.191   1_545  S
N1702      C1709   1.351       .  A
N1703      N1704   1.318       .  A
N1703     Mn1706   2.191       .  S
N1704      C1708   1.349       .  A
Mn1705     N2495   2.205       .  S
Mn1705     N2521   2.188       .  S
Mn1705    Cl1707   2.567       .  S
Mn1706     N2512   2.191       .  S
Mn1706     N2519   2.212       .  S
Mn1706    Cl1707   2.521       .  S
C1709      C1726   1.465       .  S
C1710      N1711   1.359       .  A
C1710      N1715   1.358       .  A
C1710      C2305   1.473       .  S
N1711      C1712   1.358       .  A
C1712      N1713   1.357       .  A
N1713      C1714   1.356       .  A
C1714      N1715   1.357       .  A
C1714      C1753   1.463       .  S
C1716      N1717   1.361       .  A
C1716      N1721   1.360       .  A
C1716      C2282   1.477       .  S
N1717      C1718   1.360       .  A
C1718      N1719   1.358       .  A
C1718      C1765   1.465       .  S
N1719      C1720   1.356       .  A
C1720      N1721   1.357       .  A
C1722      N1723   1.361       .  A
C1722      N1727   1.357       .  A
C1722      C2250   1.480       .  S
N1723      C1724   1.361       .  A
C1724      N1725   1.358       .  A
C1724      C1764   1.467       .  S
N1725      C1726   1.356       .  A
C1726      N1727   1.356       .  A
C1728      N1729   1.361       .  A
C1728      N1733   1.361       .  A
C1728      C2209   1.482       .  S
N1729      C1730   1.359       .  A
C1730      N1731   1.357       .  A
N1731      C1732   1.356       .  A
C1732      N1733   1.358       .  A
C1732      C1778   1.465       .  S
N1734      N1735   1.319       .  A
N1734      N1740   1.317       .  A
N1734     Mn1763   2.192       .  S
N1735      C1742   1.351       .  A
N1736      N1738   1.316       .  A
N1736      N1737   1.318       .  A
N1736     Mn1752   2.195       .  S
N1737      C1743   1.349       .  A
N1738      N1739   1.324       .  A
N1738     Mn1763   2.212       .  S
N1739      C1743   1.354       .  A
N1740      N1741   1.319       .  A
N1740     Mn1752   2.208       .  S
N1741      C1742   1.352       .  A
N1744      N1750   1.317       .  A
N1744      N1745   1.319       .  A
N1744     Mn1774   2.194       .  S
N1745      C1753   1.351       .  A
N1746      N1747   1.319       .  A
N1746      N1748   1.315       .  A
N1746     Mn1752   2.196       .  S
N1747      C1754   1.350       .  A
N1748      N1749   1.323       .  A
N1748     Mn1774   2.204       .  S
N1749      C1754   1.353       .  A
N1750      N1751   1.320       .  A
N1750     Mn1752   2.212       .  S
N1751      C1753   1.353       .  A
Mn1752    Cl1776   2.522       .  S
N1755      N1756   1.321       .  A
N1755      N1761   1.317       .  A
N1755     Mn1763   2.198       .  S
N1756      C1764   1.352       .  A
N1757      N1759   1.315       .  A
N1757      N1758   1.317       .  A
N1757     Mn1775   2.191       .  S
N1758      C1765   1.349       .  A
N1759      N1760   1.324       .  A
N1759     Mn1763   2.211       .  S
N1760      C1765   1.355       .  A
N1761      N1762   1.320       .  A
N1761     Mn1775   2.214       .  S
N1762      C1764   1.353       .  A
Mn1763    Cl1776   2.575       .  S
N1766      N1767   1.319       .  A
N1766      N1772   1.317       .  A
N1766     Mn1774   2.189       .  S
N1767      C1777   1.350       .  A
N1768      N1769   1.319       .  A
N1768      N1770   1.316       .  A
N1768     Mn1775   2.193       .  S
N1769      C1778   1.349       .  A
N1770      N1771   1.323       .  A
N1770     Mn1774   2.211       .  S
N1771      C1778   1.354       .  A
N1772      N1773   1.321       .  A
N1772     Mn1775   2.215       .  S
N1773      C1777   1.354       .  A
Mn1774    Cl1776   2.572       .  S
Mn1775    Cl1776   2.520       .  S
C1779      C2378   1.489       .  S
C1779      C1780   1.416       .  A
C1779      C1784   1.407       .  A
C1780      C2273   1.488       .  S
C1780      C1781   1.402       .  A
C1781      C1782   1.402       .  A
C1781      H2606   1.084       .  S
C1782      C2145   1.486       .  S
C1782      C1783   1.417       .  A
C1783      C2186   1.493       .  S
C1783      C1784   1.405       .  A
C1784      H1785   1.084       .  S
H1786      C2601   1.084   1_545  S
C1787      C2314   1.486       .  S
C1787      C1788   1.418       .  A
C1787      C1792   1.402       .  A
C1789      H1794   1.084   1_455  S
C1790      C1791   1.415       .  A
C1791      C2081   1.487       .  S
C1791      C1792   1.402   1_556  A
C1792      H1793   1.085       .  S
C1795      C2442   1.480       .  S
C1795      C1796   1.416       .  A
C1795      C1800   1.400       .  A
C1796      C2241   1.492       .  S
C1796      C1797   1.403       .  A
C1797      C1798   1.406       .  A
C1797      H1802   1.084       .  S
C1798      C2017   1.485       .  S
C1798      C1799   1.416       .  A
C1799      C2058   1.484       .  S
C1799      C1800   1.400       .  A
C1803      C3038   1.486       .  S
C1803      C1804   1.418       .  A
C1803      C1808   1.405       .  A
C1804      C2410   1.492       .  S
C1804      C1805   1.406       .  A
C1805      C1806   1.403   1_554  A
C1805      H1810   1.084       .  S
C1806      C1985   1.485       .  S
C1806      C1807   1.414       .  A
C1807      C1962   1.485       .  S
C1807      C1808   1.399   1_556  A
C1808      H2629   1.085       .  S
H1809      C2628   1.084   1_545  S
C1811      N1812   1.359       .  A
C1811      N1816   1.357       .  A
C1811      C1994   1.479       .  S
N1812      C1813   1.359       .  A
C1813      N1814   1.356       .  A
C1813      C1912   1.462       .  S
N1814      C1815   1.355       .  A
C1815      N1816   1.357       .  A
C1815      C1867   1.461       .  S
C1817      N1818   1.360       .  A
C1817      N1822   1.362       .  A
C1817      C2122   1.478       .  S
N1818      C1819   1.358       .  A
C1819      N1820   1.357       .  A
C1819      C1866   1.464       .  S
N1820      C1821   1.356       .  A
C1821      N1822   1.358       .  A
C1821      C1935   1.466       .  S
C1823      N1824   1.360       .  A
C1823      N1828   1.358       .  A
C1823      C1953   1.479       .  S
N1824      C1825   1.359       .  A
C1825      N1826   1.357       .  A
C1825      C1934   1.464       .  S
N1826      C1827   1.355       .  A
C1827      N1828   1.357       .  A
C1827      C1891   1.463       .  S
C1829      N1830   1.363       .  A
C1829      N1834   1.362       .  A
C1829      C2090   1.488       .  S
N1830      C1831   1.358       .  A
C1831      N1832   1.356       .  A
C1831      C1913   1.467       .  S
N1832      C1833   1.356       .  A
C1833      N1834   1.360       .  A
C1833      C1890   1.466       .  S
C1835      N1836   1.361       .  A
C1835      N1840   1.358       .  A
C1835      C2026   1.473       .  S
N1836      C1837   1.358       .  A
C1837      N1838   1.356       .  A
C1837      C1877   1.462       .  S
N1838      C1839   1.356       .  A
C1839      N1840   1.357       .  A
C1839      C1948   1.460       .  S
C1841      N1842   1.361       .  A
C1841      N1846   1.357       .  A
C1841      C2154   1.478       .  S
N1842      C1843   1.361       .  A
C1843      N1844   1.357       .  A
C1843      C1856   1.465       .  S
N1844      C1845   1.355       .  A
C1845      N1846   1.355       .  A
C1845      C1947   1.462       .  S
N1847      N1848   1.324       .  A
N1847      N1853   1.315       .  A
N1847     Mn1876   2.214       .  S
N1848      C1855   1.355       .  A
N1849      N1851   1.317       .  A
N1849      N1850   1.320       .  A
N1849     Mn1865   2.213       .  S
N1850      C1856   1.353       .  A
N1851      N1852   1.321       .  A
N1851     Mn1876   2.198       .  S
N1852      C1856   1.352       .  A
N1853      N1854   1.318       .  A
N1853     Mn1865   2.190       .  S
N1854      C1855   1.349       .  A
C1855      C1896   1.465       .  S
N1857      N1863   1.315       .  A
N1857      N1858   1.323       .  A
N1857     Mn1887   2.207       .  S
N1858      C1866   1.354       .  A
N1859      N1860   1.321       .  A
N1859      N1861   1.317       .  A
N1859     Mn1865   2.213       .  S
N1860      C1867   1.354       .  A
N1861      N1862   1.318       .  A
N1861     Mn1887   2.185       .  S
N1862      C1867   1.349       .  A
N1863      N1864   1.318       .  A
N1863     Mn1865   2.192       .  S
N1864      C1866   1.350       .  A
Mn1865    Cl1889   2.522       .  S
N1868      N1869   1.324       .  A
N1868      N1874   1.316       .  A
N1868     Mn1876   2.211       .  S
N1869      C1877   1.355       .  A
N1870      N1872   1.318       .  A
N1870      N1871   1.320       .  A
N1870     Mn1888   2.214       .  S
N1871      C1878   1.353       .  A
N1872      N1873   1.320       .  A
N1872     Mn1876   2.197       .  S
N1873      C1878   1.351       .  A
N1874      N1875   1.317       .  A
N1874     Mn1888   2.187       .  S
N1875      C1877   1.348       .  A
Mn1876    Cl1889   2.572       .  S
C1878      C1902   1.465       .  S
N1879      N1880   1.324       .  A
N1879      N1885   1.315       .  A
N1879     Mn1887   2.208       .  S
N1880      C1890   1.354       .  A
N1881      N1882   1.321       .  A
N1881      N1883   1.316       .  A
N1881     Mn1888   2.216       .  S
N1882      C1891   1.354       .  A
N1883      N1884   1.318       .  A
N1883     Mn1887   2.185       .  S
N1884      C1891   1.350       .  A
N1885      N1886   1.319       .  A
N1885     Mn1888   2.194       .  S
N1886      C1890   1.350       .  A
Mn1887    Cl1889   2.570       .  S
Mn1888    Cl1889   2.521       .  S
C1892      N1893   1.362       .  A
C1892      N1897   1.360       .  A
C1892      C2049   1.478       .  S
N1893      C1894   1.360       .  A
C1894      N1895   1.357       .  A
C1894      C1924   1.469       .  S
N1895      C1896   1.357       .  A
C1896      N1897   1.357       .  A
C1898      N1899   1.360       .  A
C1898      N1903   1.360       .  A
C1898      C2177   1.482       .  S
N1899      C1900   1.359       .  A
C1900      N1901   1.355       .  A
C1900      C1923   1.466       .  S
N1901      C1902   1.356       .  A
C1902      N1903   1.360       .  A
N1904      N1905   1.319       .  A
N1904      N1910   1.317       .  A
N1905      C1912   1.350       .  A
N1906      N1908   1.316       .  A
N1906      N1907   1.318       .  A
N1906     Mn1922   2.194       .  S
N1907      C1913   1.349       .  A
N1908      N1909   1.325       .  A
N1908     Mn1933   2.214       .  S
N1909      C1913   1.355       .  A
N1910      N1911   1.320       .  A
N1911      C1912   1.353       .  A
N1914      N1920   1.317       .  A
N1914      N1915   1.320       .  A
N1914     Mn1944   2.193       .  S
N1915      C1923   1.351       .  A
N1916      N1917   1.319       .  A
N1916      N1918   1.315       .  A
N1917      C1924   1.350       .  A
N1918      N1919   1.324       .  A
N1919      C1924   1.355       .  A
N1920      N1921   1.321       .  A
N1920     Mn1922   2.216       .  S
N1921      C1923   1.354       .  A
Mn1922    Cl1946   2.522       .  S
N1925      N1926   1.320       .  A
N1925      N1931   1.317       .  A
N1925     Mn2753   2.194   1_545  S
N1926      C1934   1.352       .  A
N1927      N1929   1.315       .  A
N1927      N1928   1.318       .  A
N1928      C1935   1.349       .  A
N1929      N1930   1.324       .  A
N1930      C1935   1.355       .  A
N1931      N1932   1.320       .  A
N1931     Mn1945   2.211       .  S
N1932      C1934   1.353       .  A
Mn1933     N2745   2.195       .  S
Mn1933    Cl1946   2.573       .  S
N1936      N1937   1.319       .  A
N1936      N1942   1.317       .  A
N1937      C1947   1.351       .  A
N1938      N1939   1.318       .  A
N1938      N1940   1.315       .  A
N1938     Mn1945   2.189       .  S
N1939      C1948   1.349       .  A
N1940      N1941   1.322       .  A
N1940     Mn2764   2.203   1_545  S
N1941      C1948   1.353       .  A
N1942      N1943   1.320       .  A
N1943      C1947   1.353       .  A
Mn1944     N2760   2.206       .  S
Mn1944    Cl1946   2.571       .  S
Mn1945    Cl2766   2.521   1_545  S
Cl1946    Mn2765   2.522       .  S
C1949      C1950   1.402       .  A
C1949      C1954   1.403       .  A
C1949      H1959   1.085   1_545  S
C1950      C1955   1.481       .  S
C1950      C1951   1.410       .  A
C1951      C1952   1.403       .  A
C1951      C1956   1.507       .  S
C1952      C1953   1.406       .  A
C1952      H1957   1.084       .  S
C1953      C1954   1.417       .  A
C1954      C1958   1.508   1_545  S
C1955      C2780   1.411       .  A
C1955      C1964   1.401       .  A
C1956      H1972   1.110       .  S
C1956      H1973   1.110       .  S
C1956      H1974   1.111       .  S
C1958      H1969   1.110       .  S
C1958      H1970   1.111       .  S
C1958      H1971   1.106       .  S
C1960      C2775   1.410       .  A
C1960      C1961   1.403       .  A
C1960      C1965   1.506       .  S
C1961      C1962   1.404       .  A
C1961      H1966   1.084       .  S
C1962      C2783   1.417       .  A
C1963      C2782   1.416       .  A
C1963      C1964   1.402       .  A
C1963      C1967   1.507       .  S
C1964      H1968   1.084       .  S
C1965      H1975   1.111       .  S
C1965      H1976   1.110       .  S
C1965      H1977   1.111       .  S
C1967      H1978   1.110       .  S
C1967      H1979   1.108       .  S
C1967      H1980   1.110       .  S
C1981      C1982   1.401       .  A
C1981      C1986   1.403       .  A
C1981      H1991   1.084       .  S
C1982      C1987   1.481       .  S
C1982      C1983   1.411       .  A
C1983      C1984   1.402       .  A
C1983      C1988   1.506       .  S
C1984      C1985   1.403       .  A
C1984      H1989   1.084       .  S
C1985      C1986   1.417       .  A
C1986      C1990   1.507       .  S
C1987      C1992   1.410       .  A
C1987      C1996   1.402       .  A
C1988      H2004   1.110       .  S
C1988      H2005   1.110       .  S
C1988      H2006   1.111       .  S
C1990      H2001   1.110       .  S
C1990      H2002   1.110       .  S
C1990      H2003   1.108       .  S
C1992      C1993   1.402       .  A
C1992      C1997   1.507       .  S
C1993      C1994   1.405       .  A
C1993      H1998   1.084       .  S
C1994      C1995   1.415       .  A
C1995      C1996   1.405       .  A
C1995      C1999   1.507       .  S
C1996      H2000   1.084       .  S
C1997      H2007   1.111       .  S
C1997      H2008   1.110       .  S
C1997      H2009   1.110       .  S
C1999      H2010   1.111       .  S
C1999      H2011   1.110       .  S
C1999      H2012   1.109       .  S
C2013      C2014   1.400       .  A
C2013      C2018   1.401       .  A
C2013      H2023   1.084       .  S
C2014      C2019   1.479       .  S
C2014      C2015   1.410       .  A
C2015      C2016   1.404       .  A
C2015      C2020   1.506       .  S
C2016      C2017   1.405       .  A
C2016      H2021   1.084       .  S
C2017      C2018   1.418       .  A
C2018      C2022   1.508       .  S
C2019      C2024   1.411       .  A
C2019      C2028   1.399       .  A
C2020      H2036   1.110       .  S
C2020      H2037   1.110       .  S
C2020      H2038   1.111       .  S
C2022      H2033   1.110       .  S
C2022      H2034   1.111       .  S
C2022      H2035   1.106       .  S
C2024      C2025   1.404       .  A
C2024      C2029   1.506       .  S
C2025      C2026   1.402       .  A
C2025      H2030   1.084       .  S
C2026      C2027   1.418       .  A
C2027      C2028   1.402       .  A
C2027      C2031   1.509       .  S
C2028      H2032   1.085       .  S
C2029      H2039   1.111       .  S
C2029      H2040   1.110       .  S
C2029      H2041   1.110       .  S
C2031      H2042   1.110       .  S
C2031      H2043   1.107       .  S
C2031      H2044   1.111       .  S
C2045      C2046   1.404       .  A
C2045      C2050   1.408       .  A
C2045      H2055   1.084       .  S
C2046      C2051   1.482       .  S
C2046      C2047   1.411       .  A
C2047      C2048   1.403       .  A
C2047      C2052   1.509       .  S
C2048      C2049   1.405       .  A
C2048      H2053   1.084       .  S
C2049      C2050   1.412       .  A
C2050      C2054   1.506       .  S
C2051      C2056   1.411       .  A
C2052      H2068   1.110       .  S
C2052      H2069   1.109       .  S
C2052      H2070   1.111       .  S
C2054      H2065   1.111       .  S
C2054      H2066   1.110       .  S
C2054      H2067   1.110       .  S
C2056      C2057   1.404       .  A
C2056      C2061   1.507       .  S
C2057      H2062   1.084       .  S
C2058      C2059   1.415       .  A
C2059      C2060   1.403       .  A
C2059      C2063   1.506       .  S
C2060      H2064   1.084       .  S
C2061      H2071   1.111       .  S
C2061      H2072   1.110       .  S
C2061      H2073   1.109       .  S
C2063      H2074   1.110       .  S
C2063      H2075   1.107       .  S
C2063      H2076   1.110       .  S
C2077      C2078   1.401       .  A
C2077      C2082   1.402       .  A
C2077      H2087   1.084       .  S
C2078      C2083   1.488       .  S
C2078      C2079   1.413       .  A
C2079      C2080   1.407       .  A
C2079      C2084   1.506       .  S
C2080      C2081   1.404       .  A
C2080      H2085   1.084       .  S
C2081      C2082   1.418       .  A
C2082      C2086   1.509       .  S
C2083      C2088   1.410       .  A
C2083      C2092   1.404       .  A
C2084      H2100   1.110       .  S
C2084      H2101   1.110       .  S
C2084      H2102   1.111       .  S
C2086      H2097   1.111       .  S
C2086      H2098   1.110       .  S
C2086      H2099   1.107   1_556  S
C2088      C2089   1.403       .  A
C2088      C2093   1.508       .  S
C2089      C2090   1.407       .  A
C2089      H2094   1.084       .  S
C2090      C2091   1.419       .  A
C2091      C2092   1.408       .  A
C2091      C2095   1.507       .  S
C2092      H2096   1.084       .  S
C2093      H2103   1.111       .  S
C2093      H2104   1.109       .  S
C2093      H2105   1.111       .  S
C2095      H2106   1.111       .  S
C2095      H2107   1.107       .  S
C2095      H2108   1.110       .  S
C2109      C2110   1.402       .  A
C2109      C2114   1.404       .  A
C2109      H2119   1.084       .  S
C2110      C2115   1.483       .  S
C2110      C2111   1.412       .  A
C2112      H2117   1.084       .  S
C2113      C2114   1.415       .  A
C2114      C2118   1.506       .  S
C2115      C2120   1.412       .  A
C2115      C2124   1.399       .  A
C2116      H2132   1.110       .  S
C2116      H2134   1.111       .  S
C2118      H2129   1.110       .  S
C2118      H2130   1.110       .  S
C2118      H2131   1.107       .  S
C2120      C2121   1.408       .  A
C2120      C2125   1.506       .  S
C2121      C2122   1.405       .  A
C2121      H2126   1.084       .  S
C2122      C2123   1.418       .  A
C2123      C2124   1.400       .  A
C2123      C2127   1.509       .  S
C2124      H2128   1.085   1_655  S
C2125      H2135   1.111       .  S
C2125      H2136   1.110       .  S
C2125      H2137   1.110       .  S
C2127      H2138   1.111       .  S
C2127      H2139   1.106       .  S
C2141      C2962   1.400       .  A
C2141      C2146   1.401       .  A
C2141      H2151   1.084       .  S
C2142      C2147   1.478       .  S
C2142      C2961   1.400   1_545  A
C2142      C2143   1.410       .  A
C2143      C2144   1.402       .  A
C2143      C2148   1.507       .  S
C2144      C2965   1.405   1_545  A
C2144      H2149   1.084       .  S
C2145      C2964   1.405       .  A
C2145      C2146   1.417       .  A
C2146      C2150   1.506       .  S
C2147      C2152   1.411       .  A
C2147      C2156   1.398       .  A
C2148      H2164   1.110       .  S
C2148      H2165   1.109       .  S
C2148      H2166   1.111       .  S
C2150      H2161   1.110       .  S
C2150      H2162   1.110       .  S
C2150      H2163   1.108       .  S
C2152      C2153   1.405       .  A
C2152      C2157   1.508       .  S
C2153      C2154   1.405       .  A
C2153      H2158   1.084       .  S
C2154      C2155   1.419       .  A
C2155      C2156   1.401       .  A
C2155      C2159   1.509       .  S
C2156      H2160   1.084       .  S
C2157      H2167   1.111       .  S
C2157      H2988   1.108       .  S
C2157      H2169   1.109       .  S
C2159      H2170   1.110       .  S
C2159      H2171   1.106       .  S
C2159      H2172   1.111       .  S
H2168      C2977   1.109       .  S
C2173      C2174   1.400       .  A
C2173      C2178   1.403       .  A
C2173      H2183   1.084       .  S
C2174      C2179   1.483       .  S
C2174      C2175   1.411       .  A
C2175      C2176   1.406       .  A
C2175      C2180   1.507       .  S
C2176      C2177   1.406       .  A
C2176      H2181   1.084       .  S
C2177      C2178   1.419       .  A
C2178      C2182   1.509       .  S
C2179      C2184   1.411       .  A
C2179      C2188   1.400       .  A
C2180      H2196   1.109       .  S
C2180      H2197   1.109       .  S
C2180      H2198   1.111       .  S
C2182      H2193   1.111       .  S
C2182      H2194   1.110       .  S
C2182      H2195   1.106       .  S
C2184      C2185   1.404       .  A
C2184      C2189   1.506       .  S
C2185      C2186   1.405       .  A
C2185      H2190   1.084       .  S
C2186      C2187   1.419       .  A
C2187      C2188   1.404       .  A
C2187      C2191   1.506       .  S
C2188      H2192   1.084       .  S
C2189      H2199   1.111       .  S
C2189      H2200   1.110       .  S
C2189      H2201   1.109       .  S
C2191      H3022   1.110       .  S
C2191      H2203   1.108       .  S
C2191      H2204   1.110       .  S
H2202      C3011   1.110       .  S
C2205      C2206   1.404       .  A
C2205      C2210   1.408       .  A
C2205      H2215   1.084       .  S
C2206      C2211   1.483       .  S
C2206      C2207   1.410       .  A
C2207      C2208   1.402       .  A
C2207      C3032   1.508       .  S
C2208      C2209   1.406       .  A
C2208      H2213   1.084       .  S
C2209      C2210   1.414       .  A
C2210      C2214   1.507       .  S
C2211      C2216   1.411   1_545  A
C2211      C2220   1.401       .  A
C2212      C3027   1.508       .  S
C2212      H2228   1.110       .  S
C2212      H2229   1.111       .  S
C2212      H2230   1.111       .  S
C2214      H2225   1.111       .  S
C2214      H2226   1.110       .  S
C2214      H2227   1.109       .  S
C2216      C2217   1.403       .  A
C2216      C2221   1.506       .  S
C2217      C2218   1.405       .  A
C2217      H2222   1.083       .  S
C2218      C2623   1.488       .  S
C2218      C3039   1.418   1_565  A
C2219      C3038   1.418       .  A
C2219      C3040   1.402       .  A
C2219      C2223   1.508       .  S
C2220      C3039   1.403       .  A
C2220      H3044   1.085       .  S
C2221      H2231   1.111       .  S
C2221      H2232   1.110       .  S
C2221      H2233   1.111       .  S
C2223      H2234   1.110       .  S
C2223      H2235   1.107       .  S
C2223      H2236   1.110       .  S
H2224      C3040   1.085       .  S
C2237      C2238   1.401       .  A
C2237      C2242   1.405       .  A
C2237      H2247   1.084       .  S
C2238      C2243   1.481       .  S
C2238      C2239   1.409       .  A
C2239      C2240   1.403       .  A
C2239      C2244   1.506       .  S
C2240      C2241   1.406       .  A
C2240      H2245   1.083       .  S
C2241      C2242   1.417       .  A
C2242      C2246   1.508       .  S
C2243      C2248   1.411       .  A
C2243      C2252   1.400       .  A
C2244      H2260   1.110       .  S
C2244      H2261   1.110       .  S
C2244      H2262   1.111       .  S
C2246      H2257   1.111       .  S
C2246      H2258   1.108       .  S
C2246      H2259   1.107       .  S
C2248      C2249   1.406       .  A
C2248      C2253   1.507       .  S
C2249      C2250   1.405       .  A
C2249      H2254   1.084       .  S
C2250      C2251   1.417       .  A
C2251      C2252   1.403       .  A
C2251      C2255   1.508       .  S
C2252      H2256   1.084       .  S
C2253      H2263   1.111       .  S
C2253      H2264   1.110       .  S
C2253      H2265   1.111       .  S
C2255      H2266   1.111       .  S
C2255      H2267   1.110       .  S
C2255      H2268   1.109       .  S
C2269      C2270   1.401       .  A
C2269      C2274   1.404   1_545  A
C2269      H2279   1.084   1_545  S
C2270      C2275   1.481       .  S
C2270      C3091   1.411       .  A
C2271      C3090   1.412       .  A
C2271      C2272   1.404       .  A
C2271      C2276   1.507       .  S
C2272      C2273   1.404       .  A
C2272      H2277   1.083       .  S
C2273      C3094   1.415       .  A
C2274      C3093   1.415       .  A
C2274      C2278   1.508       .  S
C2275      C2280   1.413       .  A
C2275      C2284   1.399       .  A
C2276      H2292   1.110       .  S
C2276      H3113   1.109       .  S
C2276      H2294   1.111       .  S
C2278      H2289   1.108       .  S
C2278      H2290   1.111       .  S
C2278      H2291   1.110       .  S
C2280      C2281   1.408       .  A
C2280      C2285   1.506       .  S
C2281      C2282   1.403       .  A
C2281      H2286   1.084       .  S
C2282      C2283   1.416       .  A
C2283      C2284   1.402       .  A
C2283      C2287   1.508       .  S
C2284      H3108   1.084   1_545  S
C2285      H2295   1.111       .  S
C2285      H2296   1.110       .  S
C2285      H2297   1.109       .  S
C2287      H2298   1.109       .  S
C2287      H2299   1.110       .  S
C2287      H3120   1.111   1_545  S
H2288      C3104   1.084       .  S
H2293      C3096   1.109       .  S
H2300      C3107   1.111       .  S
C2301      C2302   1.400       .  A
C2301      C2306   1.403       .  A
C2301      H2311   1.084       .  S
C2302      C2307   1.477       .  S
C2302      C2303   1.410       .  A
C2303      C2304   1.402       .  A
C2303      C2308   1.507       .  S
C2304      C2305   1.403       .  A
C2304      H2309   1.084       .  S
C2305      C2306   1.417       .  A
C2306      C2310   1.509       .  S
C2307      C2312   1.409       .  A
C2307      C2316   1.401       .  A
C2308      H2324   1.109       .  S
C2308      H2325   1.109       .  S
C2308      H2326   1.111       .  S
C2310      H2321   1.111       .  S
C2310      H2322   1.110       .  S
C2310      H2323   1.107       .  S
C2312      C2313   1.401       .  A
C2312      C2317   1.506       .  S
C2313      C2314   1.405       .  A
C2313      H2318   1.084       .  S
C2314      C2315   1.416       .  A
C2315      C2316   1.402       .  A
C2315      C2319   1.506       .  S
C2316      H2320   1.084       .  S
C2317      H2327   1.111       .  S
C2317      H2328   1.110       .  S
C2317      H2329   1.110       .  S
C2319      H2330   1.110       .  S
C2319      H2331   1.108       .  S
C2319      H2332   1.110       .  S
C2333      C2338   1.401       .  A
C2333      H2343   1.085       .  S
C2334      C2339   1.479       .  S
C2334      C2335   1.410       .  A
C2335      C2336   1.404   1_655  A
C2335      C2340   1.506       .  S
C2336      C2337   1.406       .  A
C2336      H2341   1.084       .  S
C2338      C2342   1.506       .  S
C2339      C2344   1.411       .  A
C2339      C2348   1.401       .  A
C2340      H2356   1.110       .  S
C2340      H2357   1.109   1_655  S
C2340      H2358   1.111   1_655  S
C2342      H2353   1.110       .  S
C2342      H2354   1.110       .  S
C2342      H2355   1.108       .  S
C2344      C2345   1.403       .  A
C2344      C2349   1.507   1_655  S
C2345      C2346   1.405       .  A
C2345      H2350   1.084       .  S
C2346      C2347   1.415       .  A
C2347      C2348   1.404       .  A
C2347      C2351   1.508       .  S
C2348      H2352   1.084       .  S
C2349      H2361   1.109       .  S
C2351      H2362   1.111       .  S
C2351      H2363   1.109       .  S
C2351      H2364   1.111       .  S
C2365      C2366   1.400       .  A
C2365      C2370   1.403       .  A
C2365      H2375   1.084       .  S
C2366      C2371   1.483       .  S
C2366      C2367   1.413       .  A
C2367      C2368   1.407       .  A
C2367      C2372   1.506       .  S
C2368      C2369   1.402       .  A
C2368      H2373   1.084       .  S
C2369      C2370   1.417       .  A
C2370      C2374   1.509       .  S
C2371      C2376   1.411       .  A
C2371      C2380   1.401       .  A
C2372      H2388   1.110       .  S
C2372      H2389   1.109       .  S
C2372      H2390   1.111       .  S
C2374      H2385   1.110       .  S
C2374      H2386   1.111       .  S
C2374      H2387   1.110       .  S
C2376      C2377   1.404       .  A
C2376      C2381   1.507       .  S
C2377      C2378   1.405       .  A
C2377      H2382   1.083       .  S
C2378      C2379   1.416       .  A
C2379      C2380   1.405       .  A
C2379      C2383   1.508       .  S
C2380      H2384   1.084       .  S
C2381      H2391   1.111       .  S
C2381      H2392   1.110       .  S
C2381      H2393   1.109       .  S
C2383      H2394   1.111       .  S
C2383      H2395   1.110       .  S
C2383      H2396   1.108       .  S
C2397      C2398   1.405       .  A
C2397      C2402   1.409       .  A
C2397      H2407   1.084       .  S
C2398      C2403   1.490       .  S
C2398      C2399   1.412       .  A
C2399      C2400   1.404       .  A
C2399      C2404   1.509       .  S
C2400      C2401   1.407       .  A
C2400      H2405   1.084       .  S
C2401      C2402   1.416       .  A
C2402      C2406   1.507       .  S
C2403      C2408   1.414       .  A
C2403      C2412   1.403       .  A
C2404      H2420   1.109       .  S
C2404      H2421   1.111       .  S
C2404      H2422   1.111       .  S
C2406      H2417   1.111       .  S
C2406      H2418   1.110       .  S
C2406      H2419   1.109       .  S
C2408      C2409   1.406       .  A
C2408      C2413   1.507       .  S
C2409      C2410   1.405       .  A
C2409      H2414   1.084       .  S
C2410      C2411   1.416       .  A
C2411      C2412   1.405       .  A
C2411      C2415   1.508       .  S
C2412      H2416   1.084       .  S
C2413      H2423   1.111       .  S
C2413      H2424   1.109       .  S
C2413      H2425   1.111       .  S
C2415      H2426   1.111       .  S
C2415      H2427   1.108       .  S
C2415      H3248   1.110       .  S
H2428      C3235   1.110       .  S
C2429      C2430   1.402       .  A
C2429      C2434   1.403       .  A
C2429      H2439   1.085       .  S
C2430      C2435   1.477       .  S
C2430      C2431   1.410       .  A
C2431      C2432   1.400       .  A
C2431      C2436   1.507       .  S
C2432      C2433   1.403       .  A
C2432      H2437   1.084       .  S
C2433      C2434   1.416       .  A
C2434      C2438   1.508       .  S
C2435      C2440   1.411       .  A
C2436      H2452   1.109       .  S
C2436      H2453   1.110       .  S
C2436      H2454   1.111       .  S
C2438      H2449   1.110       .  S
C2438      H2451   1.107       .  S
C2440      C2441   1.402       .  A
C2440      C2445   1.506       .  S
C2441      H2446   1.084       .  S
C2442      C2443   1.414       .  A
C2443      C2444   1.399       .  A
C2443      C2447   1.505       .  S
C2444      H2448   1.084       .  S
C2445      H2455   1.111       .  S
C2445      H2456   1.110       .  S
C2445      H2457   1.110       .  S
C2447      H2458   1.110       .  S
C2447      H2459   1.107       .  S
C2447      H2460   1.110       .  S
C2461      N2462   1.356       .  A
C2461      N2466   1.359       .  A
C2461      C3253   1.472       .  S
N2462      C2463   1.355       .  A
C2463      N2464   1.354       .  A
C2463      C2505   1.458       .  S
N2464      C2465   1.356       .  A
C2465      N2466   1.359       .  A
C2465      C2562   1.461       .  S
C2467      N2468   1.361       .  A
C2467      N2472   1.363       .  A
C2467      C3221   1.485       .  S
N2468      C2469   1.357       .  A
C2469      N2470   1.355       .  A
C2469      C2574   1.463       .  S
N2470      C2471   1.356       .  A
C2471      N2472   1.361       .  A
C2471      C2493   1.467       .  S
C2473      N2474   1.361       .  A
C2473      N2478   1.360       .  A
C2473      C3189   1.477       .  S
N2474      C2475   1.360       .  A
C2475      N2476   1.357       .  A
C2475      C2563   1.466       .  S
N2476      C2477   1.356       .  A
C2477      N2478   1.357       .  A
C2477      C2528   1.465       .  S
C2479      N2480   1.360       .  A
C2479      N2484   1.357       .  A
C2479      C3166   1.478       .  S
N2480      C2481   1.360       .  A
C2481      N2482   1.356       .  A
C2481      C2597   1.466       .  S
N2482      C2483   1.356       .  A
C2483      N2484   1.356       .  A
C2483      C2494   1.460       .  S
N2485      N2486   1.324       .  A
N2485     Mn2514   2.208       .  S
N2487      N2488   1.319       .  A
N2488      C2494   1.351       .  A
N2489      N2490   1.319       .  A
N2491      N2492   1.319       .  A
N2491     Mn2503   2.200       .  S
N2492      C2493   1.350       .  A
N2495      N2496   1.322       .  A
N2497      N2498   1.320       .  A
N2497     Mn2503   2.205       .  S
N2498      C2505   1.352       .  A
N2499      N2500   1.317       .  A
N2499     Mn2525   2.187       .  S
N2501      N2502   1.319       .  A
N2502      C2504   1.350       .  A
C2504      C2540   1.463       .  S
N2506      N2507   1.324       .  A
N2506      N2512   1.316       .  A
N2507      C2515   1.354       .  A
N2508      N2510   1.317       .  A
N2508      N2509   1.320       .  A
N2508     Mn2526   2.212       .  S
N2509      C2516   1.353       .  A
N2510      N2511   1.320       .  A
N2510     Mn2514   2.194       .  S
N2511      C2516   1.351       .  A
N2512      N2513   1.318       .  A
N2513      C2515   1.349       .  A
Mn2514    Cl2527   2.571       .  S
C2515      C2550   1.464       .  S
C2516      C2532   1.464       .  S
N2517      N2518   1.323       .  A
N2517      N2523   1.315       .  A
N2517     Mn2525   2.208       .  S
N2518      C2528   1.354       .  A
N2519      N2520   1.321       .  A
N2519      N2521   1.316       .  A
N2520      C2529   1.354       .  A
N2521      N2522   1.318       .  A
N2522      C2529   1.350       .  A
N2523      N2524   1.318       .  A
N2523     Mn2526   2.192       .  S
N2524      C2528   1.349       .  A
Mn2525    Cl2527   2.568       .  S
Mn2526    Cl2527   2.521       .  S
C2529      C2546   1.463       .  S
C2530      N2531   1.359       .  A
C2530      N2535   1.357       .  A
C2530      C3125   1.474       .  S
N2531      C2532   1.359       .  A
C2532      N2533   1.356       .  A
N2533      C2534   1.355       .  A
C2534      N2535   1.356       .  A
C2534      C2573   1.462       .  S
C2536      N2537   1.361       .  A
C2536      N2541   1.359       .  A
C2536      C3102   1.479       .  S
N2537      C2538   1.360       .  A
C2538      N2539   1.357       .  A
C2538      C2585   1.465       .  S
N2539      C2540   1.355       .  A
C2540      N2541   1.356       .  A
C2542      N2543   1.360       .  A
C2542      N2547   1.357       .  A
C2542      C3070   1.480       .  S
N2543      C2544   1.361       .  A
C2544      N2545   1.357       .  A
C2544      C2584   1.465       .  S
N2545      C2546   1.355       .  A
C2546      N2547   1.357       .  A
C2548      N2549   1.361       .  A
C2548      N2553   1.361       .  A
C2548      C3029   1.480       .  S
N2549      C2550   1.359       .  A
C2550      N2551   1.357       .  A
N2551      C2552   1.356       .  A
C2552      N2553   1.357       .  A
C2552      C2598   1.465       .  S
N2554      N2555   1.319       .  A
N2554      N2560   1.316       .  A
N2554     Mn2583   2.190       .  S
N2555      C2562   1.350       .  A
N2556      N2558   1.316       .  A
N2556      N2557   1.319       .  A
N2556     Mn2572   2.196       .  S
N2557      C2563   1.350       .  A
N2558      N2559   1.324       .  A
N2558     Mn2583   2.211       .  S
N2559      C2563   1.354       .  A
N2560      N2561   1.319       .  A
N2560     Mn2572   2.208       .  S
N2561      C2562   1.352       .  A
N2564      N2570   1.317       .  A
N2564      N2565   1.319       .  A
N2564     Mn2594   2.193       .  S
N2565      C2573   1.351       .  A
N2566      N2567   1.319       .  A
N2566      N2568   1.315       .  A
N2566     Mn2572   2.196       .  S
N2567      C2574   1.350       .  A
N2568      N2569   1.322       .  A
N2568     Mn2594   2.204       .  S
N2569      C2574   1.353       .  A
N2570      N2571   1.320       .  A
N2570     Mn2572   2.209       .  S
N2571      C2573   1.352       .  A
Mn2572    Cl2596   2.522       .  S
N2575      N2576   1.321       .  A
N2575      N2581   1.317       .  A
N2575     Mn2583   2.195       .  S
N2576      C2584   1.352       .  A
N2577      N2579   1.315       .  A
N2577      N2578   1.318       .  A
N2577     Mn2595   2.193       .  S
N2578      C2585   1.349       .  A
N2579      N2580   1.324       .  A
N2579     Mn2583   2.208       .  S
N2580      C2585   1.354       .  A
N2581      N2582   1.320       .  A
N2581     Mn2595   2.213       .  S
N2582      C2584   1.353       .  A
Mn2583    Cl2596   2.573       .  S
N2586      N2587   1.320       .  A
N2586      N2592   1.317       .  A
N2586     Mn2594   2.191       .  S
N2587      C2597   1.351       .  A
N2588      N2589   1.319       .  A
N2588      N2590   1.316       .  A
N2588     Mn2595   2.194       .  S
N2589      C2598   1.349       .  A
N2590      N2591   1.323       .  A
N2590     Mn2594   2.210       .  S
N2591      C2598   1.354       .  A
N2592      N2593   1.321       .  A
N2592     Mn2595   2.216       .  S
N2593      C2597   1.354       .  A
Mn2594    Cl2596   2.571       .  S
Mn2595    Cl2596   2.521       .  S
C2599      C3198   1.491       .  S
C2599      C2600   1.417       .  A
C2599      C2604   1.406       .  A
C2600      C3093   1.486       .  S
C2600      C2601   1.403       .  A
C2601      C2602   1.401       .  A
C2602      C2965   1.487       .  S
C2602      C2603   1.416       .  A
C2603      C3006   1.489       .  S
C2603      C2604   1.404       .  A
C2604      H2605   1.084       .  S
C2607      C3134   1.488       .  S
C2607      C2608   1.417       .  A
C2607      C2612   1.402       .  A
C2609      H2614   1.084   1_455  S
C2610      C2611   1.416       .  A
C2611      C2901   1.487       .  S
C2611      C2612   1.404   1_556  A
C2612      H2613   1.085       .  S
C2615      C3262   1.480       .  S
C2615      C2616   1.416       .  A
C2615      C2620   1.401       .  A
C2616      C3061   1.493       .  S
C2616      C2617   1.403       .  A
C2617      C2618   1.407       .  A
C2617      H2622   1.084       .  S
C2618      C2837   1.485       .  S
C2618      C2619   1.417       .  A
C2619      C2878   1.487       .  S
C2619      C2620   1.401       .  A
C2623      C2624   1.418       .  A
C2623      C2628   1.405       .  A
C2624      C3230   1.491       .  S
C2624      C2625   1.406       .  A
C2625      C2626   1.403   1_554  A
C2625      H2630   1.084       .  S
C2626      C2805   1.485       .  S
C2626      C2627   1.413       .  A
C2627      C2782   1.485   1_565  S
C2627      C2628   1.400   1_556  A
C2631      N2632   1.359       .  A
C2631      N2636   1.357       .  A
C2631      C2814   1.479       .  S
N2632      C2633   1.359       .  A
C2633      N2634   1.356       .  A
C2633      C2732   1.462       .  S
N2634      C2635   1.355       .  A
C2635      N2636   1.356       .  A
C2635      C2687   1.459       .  S
C2637      N2638   1.360       .  A
C2637      N2642   1.362       .  A
C2637      C2942   1.479       .  S
N2638      C2639   1.359       .  A
C2639      N2640   1.356       .  A
C2639      C2686   1.464       .  S
N2640      C2641   1.356       .  A
C2641      N2642   1.358       .  A
C2641      C2755   1.465       .  S
C2643      N2644   1.359       .  A
C2643      N2648   1.357       .  A
C2643      C2773   1.477       .  S
N2644      C2645   1.358       .  A
C2645      N2646   1.357       .  A
C2645      C2754   1.463       .  S
N2646      C2647   1.356       .  A
C2647      N2648   1.357       .  A
C2647      C2711   1.461       .  S
C2649      N2650   1.362       .  A
C2649      N2654   1.363       .  A
C2649      C2910   1.488       .  S
N2650      C2651   1.357       .  A
C2651      N2652   1.355       .  A
C2651      C2733   1.466       .  S
N2652      C2653   1.356       .  A
C2653      N2654   1.360       .  A
C2653      C2710   1.465       .  S
C2655      N2656   1.361       .  A
C2655      N2660   1.359       .  A
C2655      C2846   1.475       .  S
N2656      C2657   1.358       .  A
C2657      N2658   1.356       .  A
C2657      C2697   1.464       .  S
N2658      C2659   1.356       .  A
C2659      N2660   1.358       .  A
C2659      C2768   1.462       .  S
C2661      N2662   1.360       .  A
C2661      N2666   1.358       .  A
C2661      C2974   1.476       .  S
N2662      C2663   1.359       .  A
C2663      N2664   1.356       .  A
C2663      C2676   1.464       .  S
N2664      C2665   1.355       .  A
C2665      N2666   1.356       .  A
C2665      C2767   1.461       .  S
N2667      N2668   1.324       .  A
N2667      N2673   1.315       .  A
N2667     Mn2696   2.213       .  S
N2668      C2675   1.355       .  A
N2669      N2671   1.317       .  A
N2669      N2670   1.319       .  A
N2669     Mn2685   2.210       .  S
N2670      C2676   1.352       .  A
N2671      N2672   1.321       .  A
N2671     Mn2696   2.197       .  S
N2672      C2676   1.352       .  A
N2673      N2674   1.319       .  A
N2673     Mn2685   2.192       .  S
N2674      C2675   1.349       .  A
C2675      C2716   1.466       .  S
N2677      N2683   1.315       .  A
N2677      N2678   1.323       .  A
N2677     Mn2707   2.203       .  S
N2678      C2686   1.353       .  A
N2679      N2680   1.321       .  A
N2679      N2681   1.316       .  A
N2679     Mn2685   2.209       .  S
N2680      C2687   1.353       .  A
N2681      N2682   1.317       .  A
N2681     Mn2707   2.185       .  S
N2682      C2687   1.349       .  A
N2683      N2684   1.318       .  A
N2683     Mn2685   2.194       .  S
N2684      C2686   1.350       .  A
Mn2685    Cl2709   2.522       .  S
N2688      N2689   1.324       .  A
N2688      N2694   1.316       .  A
N2688     Mn2696   2.212       .  S
N2689      C2697   1.355       .  A
N2690      N2692   1.317       .  A
N2690      N2691   1.319       .  A
N2690     Mn2708   2.206       .  S
N2691      C2698   1.352       .  A
N2692      N2693   1.320       .  A
N2692     Mn2696   2.195       .  S
N2693      C2698   1.351       .  A
N2694      N2695   1.318       .  A
N2694     Mn2708   2.190       .  S
N2695      C2697   1.348       .  A
Mn2696    Cl2709   2.572       .  S
C2698      C2722   1.461       .  S
N2699      N2700   1.323       .  A
N2699      N2705   1.315       .  A
N2699     Mn2707   2.205       .  S
N2700      C2710   1.353       .  A
N2701      N2702   1.321       .  A
N2701      N2703   1.316       .  A
N2701     Mn2708   2.211       .  S
N2702      C2711   1.353       .  A
N2703      N2704   1.318       .  A
N2703     Mn2707   2.187       .  S
N2704      C2711   1.350       .  A
N2705      N2706   1.318       .  A
N2705     Mn2708   2.195       .  S
N2706      C2710   1.350       .  A
Mn2707    Cl2709   2.568       .  S
Mn2708    Cl2709   2.521       .  S
C2712      N2713   1.362       .  A
C2712      N2717   1.361       .  A
C2712      C2869   1.480       .  S
N2713      C2714   1.361       .  A
C2714      N2715   1.357       .  A
C2714      C2744   1.468       .  S
N2715      C2716   1.356       .  A
C2716      N2717   1.357       .  A
C2718      N2719   1.360       .  A
C2718      N2723   1.357       .  A
C2718      C2997   1.477       .  S
N2719      C2720   1.359       .  A
C2720      N2721   1.355       .  A
C2720      C2743   1.465       .  S
N2721      C2722   1.356       .  A
C2722      N2723   1.357       .  A
N2724      N2725   1.319       .  A
N2724      N2730   1.317       .  A
N2725      C2732   1.350       .  A
N2726      N2728   1.315       .  A
N2726      N2727   1.318       .  A
N2726     Mn2742   2.194       .  S
N2727      C2733   1.349       .  A
N2728      N2729   1.324       .  A
N2728     Mn2753   2.210       .  S
N2729      C2733   1.354       .  A
N2730      N2731   1.320       .  A
N2731      C2732   1.353       .  A
N2734      N2740   1.317       .  A
N2734      N2735   1.320       .  A
N2734     Mn2764   2.192       .  S
N2735      C2743   1.351       .  A
N2736      N2737   1.319       .  A
N2736      N2738   1.315       .  A
N2737      C2744   1.350       .  A
N2738      N2739   1.324       .  A
N2739      C2744   1.354       .  A
N2740      N2741   1.320       .  A
N2740     Mn2742   2.215       .  S
N2741      C2743   1.354       .  A
Mn2742    Cl2766   2.521       .  S
N2745      N2746   1.320       .  A
N2745      N2751   1.317       .  A
N2746      C2754   1.352       .  A
N2747      N2749   1.315       .  A
N2747      N2748   1.318       .  A
N2748      C2755   1.349       .  A
N2749      N2750   1.324       .  A
N2750      C2755   1.354       .  A
N2751      N2752   1.320       .  A
N2751     Mn2765   2.208       .  S
N2752      C2754   1.352       .  A
Mn2753    Cl2766   2.572       .  S
N2756      N2757   1.319       .  A
N2756      N2762   1.317       .  A
N2757      C2767   1.351       .  A
N2758      N2759   1.318       .  A
N2758      N2760   1.315       .  A
N2758     Mn2765   2.192       .  S
N2759      C2768   1.349       .  A
N2760      N2761   1.323       .  A
N2761      C2768   1.353       .  A
N2762      N2763   1.320       .  A
N2763      C2767   1.352       .  A
Mn2764    Cl2766   2.571       .  S
C2769      C2770   1.401       .  A
C2769      C2774   1.402       .  A
C2769      H2779   1.085       .  S
C2770      C2775   1.479       .  S
C2770      C2771   1.409       .  A
C2771      C2772   1.403       .  A
C2771      C2776   1.506       .  S
C2772      C2773   1.406       .  A
C2772      H2777   1.084       .  S
C2773      C2774   1.417       .  A
C2774      C2778   1.508       .  S
C2775      C2784   1.400       .  A
C2776      H2792   1.110       .  S
C2776      H2793   1.110       .  S
C2776      H2794   1.111       .  S
C2778      H2789   1.110       .  S
C2778      H2790   1.111       .  S
C2778      H2791   1.106       .  S
C2780      C2781   1.403   1_545  A
C2780      C2785   1.506       .  S
C2781      C2782   1.403   1_565  A
C2781      H2786   1.084       .  S
C2783      C2784   1.402       .  A
C2783      C2787   1.507       .  S
C2784      H2788   1.084       .  S
C2785      H2795   1.111   1_545  S
C2785      H2796   1.110   1_545  S
C2785      H2797   1.111       .  S
C2787      H2798   1.110       .  S
C2787      H2799   1.108       .  S
C2787      H2800   1.110       .  S
C2801      C2802   1.401       .  A
C2801      C2806   1.403       .  A
C2801      H2811   1.084       .  S
C2802      C2807   1.482       .  S
C2802      C2803   1.411       .  A
C2803      C2804   1.403       .  A
C2803      C2808   1.506       .  S
C2804      C2805   1.402       .  A
C2804      H2809   1.084       .  S
C2805      C2806   1.416       .  A
C2806      C2810   1.507       .  S
C2807      C2812   1.410       .  A
C2807      C2816   1.403       .  A
C2808      H2824   1.110       .  S
C2808      H2825   1.110       .  S
C2808      H2826   1.111       .  S
C2810      H2821   1.110       .  S
C2810      H2822   1.110       .  S
C2810      H2823   1.108       .  S
C2812      C2813   1.402       .  A
C2812      C2817   1.507       .  S
C2813      C2814   1.405       .  A
C2813      H2818   1.084       .  S
C2814      C2815   1.415       .  A
C2815      C2816   1.406       .  A
C2815      C2819   1.507       .  S
C2816      H2820   1.084       .  S
C2817      H2827   1.111       .  S
C2817      H2828   1.110       .  S
C2817      H2829   1.110       .  S
C2819      H2830   1.111       .  S
C2819      H2831   1.110       .  S
C2819      H2832   1.109       .  S
C2833      C2834   1.400       .  A
C2833      C2838   1.402       .  A
C2833      H2843   1.084       .  S
C2834      C2839   1.480       .  S
C2834      C2835   1.411       .  A
C2835      C2836   1.404       .  A
C2835      C2840   1.506       .  S
C2836      C2837   1.405       .  A
C2836      H2841   1.084       .  S
C2837      C2838   1.418       .  A
C2838      C2842   1.509       .  S
C2839      C2844   1.411       .  A
C2839      C2848   1.399       .  A
C2840      H2856   1.110       .  S
C2840      H2857   1.110       .  S
C2840      H2858   1.111       .  S
C2842      H2853   1.110       .  S
C2842      H2854   1.111       .  S
C2842      H2855   1.107       .  S
C2844      C2845   1.406       .  A
C2844      C2849   1.506       .  S
C2845      C2846   1.403       .  A
C2845      H2850   1.084       .  S
C2846      C2847   1.418       .  A
C2847      C2848   1.401       .  A
C2847      C2851   1.509       .  S
C2848      H2852   1.085       .  S
C2849      H2859   1.111       .  S
C2849      H2860   1.110       .  S
C2849      H2861   1.110       .  S
C2851      H2862   1.110       .  S
C2851      H2863   1.106       .  S
C2851      H2864   1.111       .  S
C2865      C2866   1.404       .  A
C2865      C2870   1.408       .  A
C2865      H2875   1.084       .  S
C2866      C2871   1.483       .  S
C2866      C2867   1.411       .  A
C2867      C2868   1.403       .  A
C2867      C2872   1.509       .  S
C2868      C2869   1.405       .  A
C2868      H2873   1.084       .  S
C2869      C2870   1.413       .  A
C2870      C2874   1.506       .  S
C2871      C2876   1.411       .  A
C2872      H2888   1.111       .  S
C2872      H2889   1.109       .  S
C2872      H2890   1.111       .  S
C2874      H2885   1.111       .  S
C2874      H2886   1.110       .  S
C2874      H2887   1.111       .  S
C2876      C2877   1.405       .  A
C2876      C2881   1.507       .  S
C2877      H2882   1.084       .  S
C2878      C2879   1.415       .  A
C2879      C2880   1.404       .  A
C2879      C2883   1.506       .  S
C2880      H2884   1.084       .  S
C2881      H2891   1.111       .  S
C2881      H2892   1.110       .  S
C2881      H2893   1.109       .  S
C2883      H2894   1.110       .  S
C2883      H2895   1.107       .  S
C2883      H2896   1.110       .  S
C2897      C2898   1.401       .  A
C2897      C2902   1.402       .  A
C2897      H2907   1.084       .  S
C2898      C2903   1.487       .  S
C2898      C2899   1.413       .  A
C2899      C2900   1.407       .  A
C2899      C2904   1.506       .  S
C2900      C2901   1.404       .  A
C2900      H2905   1.084       .  S
C2901      C2902   1.418       .  A
C2902      C2906   1.509       .  S
C2903      C2908   1.410       .  A
C2903      C2912   1.404       .  A
C2904      H2920   1.110       .  S
C2904      H2921   1.110       .  S
C2904      H2922   1.111       .  S
C2906      H2917   1.111       .  S
C2906      H2918   1.110       .  S
C2906      H2919   1.107   1_556  S
C2908      C2909   1.402       .  A
C2908      C2913   1.508       .  S
C2909      C2910   1.407       .  A
C2909      H2914   1.084       .  S
C2910      C2911   1.419       .  A
C2911      C2912   1.408       .  A
C2911      C2915   1.507       .  S
C2912      H2916   1.084       .  S
C2913      H2923   1.111       .  S
C2913      H2924   1.109       .  S
C2913      H2925   1.111       .  S
C2915      H2926   1.111       .  S
C2915      H2927   1.107       .  S
C2915      H2928   1.110       .  S
C2929      C2930   1.403       .  A
C2929      C2934   1.405       .  A
C2929      H2939   1.084       .  S
C2930      C2935   1.484       .  S
C2930      C2931   1.411       .  A
C2932      H2937   1.084       .  S
C2933      C2934   1.415       .  A
C2934      C2938   1.506       .  S
C2935      C2940   1.413       .  A
C2935      C2944   1.399       .  A
C2936      H2952   1.110       .  S
C2936      H2954   1.111       .  S
C2938      H2949   1.110       .  S
C2938      H2950   1.110       .  S
C2938      H2951   1.107       .  S
C2940      C2941   1.409       .  A
C2940      C2945   1.505       .  S
C2941      C2942   1.405       .  A
C2941      H2946   1.084       .  S
C2942      C2943   1.419       .  A
C2943      C2944   1.400       .  A
C2943      C2947   1.509       .  S
C2944      H2948   1.085   1_655  S
C2945      H2955   1.111       .  S
C2945      H2956   1.110       .  S
C2945      H2957   1.110       .  S
C2947      H2958   1.111       .  S
C2947      H2959   1.106       .  S
C2961      C2966   1.402       .  A
C2961      H2971   1.084       .  S
C2962      C2967   1.476       .  S
C2962      C2963   1.410       .  A
C2963      C2964   1.402       .  A
C2963      C2968   1.507       .  S
C2964      H2969   1.084       .  S
C2965      C2966   1.417       .  A
C2966      C2970   1.507       .  S
C2967      C2972   1.411       .  A
C2967      C2976   1.398       .  A
C2968      H2984   1.110       .  S
C2968      H2985   1.109       .  S
C2968      H2986   1.111       .  S
C2970      H2981   1.110       .  S
C2970      H2982   1.110       .  S
C2970      H2983   1.108       .  S
C2972      C2973   1.403       .  A
C2972      C2977   1.508       .  S
C2973      C2974   1.404       .  A
C2973      H2978   1.084       .  S
C2974      C2975   1.419       .  A
C2975      C2976   1.401       .  A
C2975      C2979   1.509       .  S
C2976      H2980   1.084       .  S
C2977      H2987   1.111       .  S
C2977      H2989   1.109       .  S
C2979      H2990   1.110       .  S
C2979      H2991   1.106       .  S
C2979      H2992   1.111       .  S
C2993      C2994   1.399       .  A
C2993      C2998   1.401       .  A
C2993      H3003   1.084       .  S
C2994      C2999   1.478       .  S
C2994      C2995   1.411       .  A
C2995      C2996   1.405       .  A
C2995      C3000   1.508       .  S
C2996      C2997   1.406       .  A
C2996      H3001   1.084       .  S
C2997      C2998   1.417       .  A
C2998      C3002   1.509       .  S
C2999      C3004   1.410       .  A
C2999      C3008   1.399       .  A
C3000      H3016   1.108       .  S
C3000      H3017   1.109       .  S
C3000      H3018   1.111       .  S
C3002      H3013   1.111       .  S
C3002      H3014   1.110       .  S
C3002      H3015   1.106       .  S
C3004      C3005   1.404       .  A
C3004      C3009   1.506       .  S
C3005      C3006   1.405       .  A
C3005      H3010   1.084       .  S
C3006      C3007   1.418       .  A
C3007      C3008   1.401       .  A
C3007      C3011   1.507   1_565  S
C3008      H3012   1.085       .  S
C3009      H3019   1.111       .  S
C3009      H3020   1.110       .  S
C3009      H3021   1.109       .  S
C3011      H3023   1.108       .  S
C3011      H3024   1.110       .  S
C3025      C3026   1.404       .  A
C3025      C3030   1.407       .  A
C3025      H3035   1.084       .  S
C3026      C3031   1.481       .  S
C3026      C3027   1.410       .  A
C3027      C3028   1.402       .  A
C3028      C3029   1.406       .  A
C3028      H3033   1.084       .  S
C3029      C3030   1.414       .  A
C3030      C3034   1.507       .  S
C3031      C3036   1.411       .  A
C3031      C3040   1.401       .  A
C3032      H3048   1.110       .  S
C3032      H3049   1.111       .  S
C3032      H3050   1.111       .  S
C3034      H3045   1.111       .  S
C3034      H3046   1.110       .  S
C3034      H3047   1.109       .  S
C3036      C3037   1.403       .  A
C3036      C3041   1.506       .  S
C3037      C3038   1.404       .  A
C3037      H3042   1.084       .  S
C3039      C3043   1.508       .  S
C3041      H3051   1.111       .  S
C3041      H3052   1.110       .  S
C3041      H3053   1.110       .  S
C3043      H3054   1.110       .  S
C3043      H3055   1.107       .  S
C3043      H3056   1.111       .  S
C3057      C3058   1.401       .  A
C3057      C3062   1.405       .  A
C3057      H3067   1.084       .  S
C3058      C3063   1.481       .  S
C3058      C3059   1.409       .  A
C3059      C3060   1.403       .  A
C3059      C3064   1.506       .  S
C3060      C3061   1.407       .  A
C3060      H3065   1.083       .  S
C3061      C3062   1.417       .  A
C3062      C3066   1.508       .  S
C3063      C3068   1.411       .  A
C3063      C3072   1.400       .  A
C3064      H3080   1.110       .  S
C3064      H3081   1.110       .  S
C3064      H3082   1.111       .  S
C3066      H3077   1.111       .  S
C3066      H3078   1.108       .  S
C3066      H3079   1.107       .  S
C3068      C3069   1.405       .  A
C3068      C3073   1.507       .  S
C3069      C3070   1.404       .  A
C3069      H3074   1.084       .  S
C3070      C3071   1.417       .  A
C3071      C3072   1.404       .  A
C3071      C3075   1.508       .  S
C3072      H3076   1.084       .  S
C3073      H3083   1.111       .  S
C3073      H3084   1.110       .  S
C3073      H3085   1.110       .  S
C3075      H3086   1.111       .  S
C3075      H3087   1.110       .  S
C3075      H3088   1.109       .  S
C3089      C3090   1.401       .  A
C3089      C3094   1.405       .  A
C3089      H3099   1.084       .  S
C3090      C3095   1.483       .  S
C3091      C3092   1.404       .  A
C3091      C3096   1.506       .  S
C3092      C3093   1.404   1_545  A
C3092      H3097   1.084       .  S
C3094      C3098   1.508       .  S
C3095      C3100   1.413       .  A
C3095      C3104   1.399       .  A
C3096      H3112   1.110       .  S
C3096      H3114   1.111       .  S
C3098      H3109   1.108       .  S
C3098      H3110   1.111       .  S
C3098      H3111   1.110       .  S
C3100      C3101   1.408       .  A
C3100      C3105   1.506       .  S
C3101      C3102   1.403       .  A
C3101      H3106   1.084       .  S
C3102      C3103   1.418       .  A
C3103      C3104   1.402       .  A
C3103      C3107   1.509       .  S
C3105      H3115   1.111       .  S
C3105      H3116   1.110       .  S
C3105      H3117   1.109       .  S
C3107      H3118   1.109       .  S
C3107      H3119   1.110       .  S
C3121      C3122   1.400       .  A
C3121      C3126   1.403       .  A
C3121      H3131   1.084       .  S
C3122      C3127   1.478       .  S
C3122      C3123   1.411       .  A
C3123      C3124   1.402       .  A
C3123      C3128   1.507       .  S
C3124      C3125   1.402       .  A
C3124      H3129   1.084       .  S
C3125      C3126   1.418       .  A
C3126      C3130   1.509       .  S
C3127      C3132   1.409       .  A
C3127      C3136   1.401       .  A
C3128      H3144   1.108       .  S
C3128      H3145   1.109       .  S
C3128      H3146   1.111       .  S
C3130      H3141   1.111       .  S
C3130      H3142   1.110       .  S
C3130      H3143   1.107       .  S
C3132      C3133   1.402       .  A
C3132      C3137   1.506       .  S
C3133      C3134   1.405       .  A
C3133      H3138   1.084       .  S
C3134      C3135   1.417       .  A
C3135      C3136   1.403       .  A
C3135      C3139   1.506       .  S
C3136      H3140   1.084       .  S
C3137      H3147   1.111       .  S
C3137      H3148   1.110       .  S
C3137      H3149   1.110       .  S
C3139      H3150   1.110       .  S
C3139      H3151   1.108       .  S
C3139      H3152   1.110       .  S
C3153      C3158   1.401       .  A
C3153      H3163   1.085       .  S
C3154      C3159   1.478       .  S
C3154      C3155   1.410       .  A
C3155      C3156   1.404   1_655  A
C3155      C3160   1.506       .  S
C3156      C3157   1.406       .  A
C3156      H3161   1.084       .  S
C3158      C3162   1.506       .  S
C3159      C3164   1.411       .  A
C3159      C3168   1.401       .  A
C3160      H3176   1.110       .  S
C3160      H3177   1.109   1_655  S
C3160      H3178   1.111   1_655  S
C3162      H3173   1.110       .  S
C3162      H3174   1.110       .  S
C3162      H3175   1.108       .  S
C3164      C3165   1.404       .  A
C3164      C3169   1.508   1_655  S
C3165      C3166   1.405       .  A
C3165      H3170   1.084   1_655  S
C3166      C3167   1.415       .  A
C3167      C3168   1.403       .  A
C3167      C3171   1.507       .  S
C3168      H3172   1.084       .  S
C3169      H3181   1.109       .  S
C3171      H3182   1.111       .  S
C3171      H3183   1.109       .  S
C3171      H3184   1.111       .  S
C3185      C3186   1.400       .  A
C3185      C3190   1.403       .  A
C3185      H3195   1.084       .  S
C3186      C3191   1.484       .  S
C3186      C3187   1.413       .  A
C3187      C3188   1.408       .  A
C3187      C3192   1.505       .  S
C3188      C3189   1.402       .  A
C3188      H3193   1.084       .  S
C3189      C3190   1.416       .  A
C3190      C3194   1.508       .  S
C3191      C3196   1.411       .  A
C3191      C3200   1.401       .  A
C3192      H3208   1.110       .  S
C3192      H3209   1.110       .  S
C3192      H3210   1.111       .  S
C3194      H3205   1.111       .  S
C3194      H3206   1.111       .  S
C3194      H3207   1.109       .  S
C3196      C3197   1.404       .  A
C3196      C3201   1.506       .  S
C3197      C3198   1.405       .  A
C3197      H3202   1.083       .  S
C3198      C3199   1.417       .  A
C3199      C3200   1.406       .  A
C3199      C3203   1.508       .  S
C3200      H3204   1.084       .  S
C3201      H3211   1.111       .  S
C3201      H3212   1.110       .  S
C3201      H3213   1.110       .  S
C3203      H3214   1.111       .  S
C3203      H3215   1.110       .  S
C3203      H3216   1.108       .  S
C3217      C3218   1.405       .  A
C3217      C3222   1.409       .  A
C3217      H3227   1.084       .  S
C3218      C3223   1.489       .  S
C3218      C3219   1.412       .  A
C3219      C3220   1.403       .  A
C3219      C3224   1.509       .  S
C3220      C3221   1.406       .  A
C3220      H3225   1.084       .  S
C3221      C3222   1.414       .  A
C3222      C3226   1.506       .  S
C3223      C3228   1.414       .  A
C3223      C3232   1.403       .  A
C3224      H3240   1.109       .  S
C3224      H3241   1.111       .  S
C3224      H3242   1.111       .  S
C3226      H3237   1.111       .  S
C3226      H3238   1.111       .  S
C3226      H3239   1.109       .  S
C3228      C3229   1.406       .  A
C3228      C3233   1.506       .  S
C3229      C3230   1.405       .  A
C3229      H3234   1.084       .  S
C3230      C3231   1.415       .  A
C3231      C3232   1.405       .  A
C3231      C3235   1.508       .  S
C3232      H3236   1.084       .  S
C3233      H3243   1.111       .  S
C3233      H3244   1.109       .  S
C3233      H3245   1.111       .  S
C3235      H3246   1.111       .  S
C3235      H3247   1.108       .  S
C3249      C3250   1.402       .  A
C3249      C3254   1.403       .  A
C3249      H3259   1.085       .  S
C3250      C3255   1.477       .  S
C3250      C3251   1.410       .  A
C3251      C3252   1.400       .  A
C3251      C3256   1.507       .  S
C3252      C3253   1.403       .  A
C3252      H3257   1.084       .  S
C3253      C3254   1.416       .  A
C3254      C3258   1.507       .  S
C3255      C3260   1.411       .  A
C3256      H3272   1.110       .  S
C3256      H3273   1.110       .  S
C3256      H3274   1.111       .  S
C3258      H3269   1.110       .  S
C3258      H3271   1.107       .  S
C3260      C3261   1.402       .  A
C3260      C3265   1.506       .  S
C3261      H3266   1.084       .  S
C3262      C3263   1.414       .  A
C3263      C3264   1.399       .  A
C3263      C3267   1.505       .  S
C3264      H3268   1.084       .  S
C3265      H3275   1.111       .  S
C3265      H3276   1.110       .  S
C3265      H3277   1.110       .  S
C3267      H3278   1.110       .  S
C3267      H3279   1.107       .  S
C3267      H3280   1.110       .  S
