geometry optimzed in LAMMPS
_audit_creation_date              2020-12-01 
_audit_creation_method            'lammps2cif' 
_symmetry_space_group_name_H-M    'P1' 
_symmetry_Int_Tables_number       1 
_symmetry_cell_setting            triclinic 
loop_ 
_symmetry_equiv_pos_as_xyz 
  x,y,z 
_cell_length_a                    50.25367722 
_cell_length_b                    38.549522423722934 
_cell_length_c                    62.57048801237201 
_cell_angle_alpha                 90.21636702014197 
_cell_angle_beta                  90.14190532774266 
_cell_angle_gamma                 90.01652695334862 
loop_ 
_atom_site_label 
_atom_site_type_symbol 
_atom_site_fract_x 
_atom_site_fract_y 
_atom_site_fract_z 
_atom_site_charge 
Fe1        Fe  0.90233117  0.21838617  0.97863359     1.65800
Fe2        Fe  0.87166835  0.18408091  0.02087829     1.73200
Fe3        Fe  0.92240150  0.14038369  0.99734022     1.54400
O4          O  0.92009652  0.13805634  0.96356970    -0.82000
O5          O  0.89997925  0.17924534  0.04444117    -0.80300
O6          O  0.89635843  0.18458152  0.95407071    -0.84500
O7          O  0.94324070  0.21479623  0.97609458    -0.79300
O8          O  0.89008575  0.10584720  0.99768327    -0.81100
O9          O  0.87433497  0.23803001  0.02338091    -0.83800
C10         C  0.96149517  0.19949648  0.98645201     0.96900
C11         C  0.90603172  0.15494341  0.95007933     1.04400
O12         O  0.89899142  0.18072981  0.99900817    -1.12800
O13         O  0.84220360  0.18884312  0.99812219    -0.75200
O14         O  0.86179044  0.22840571  0.97775976    -0.78700
O15         O  0.95675804  0.17200111  0.99710520    -0.79400
C16         C  0.84118502  0.21216173  0.98387968     0.95800
O17         O  0.90784798  0.25420501  0.00256094    -0.77400
O18         O  0.86381463  0.13116206  0.02161416    -0.82600
C19         C  0.91812528  0.15649037  0.04647650     0.98500
C20         C  0.86981746  0.10534424  0.00990029     1.04400
O21         O  0.92629473  0.13779094  0.03086860    -0.78200
C22         C  0.89057206  0.26083620  0.01669296     1.02700
Fe23       Fe  0.87502670  0.22305423  0.77253579     1.65800
Fe24       Fe  0.90542640  0.19208118  0.72922707     1.73200
Fe25       Fe  0.85278856  0.14920138  0.75014561     1.54400
O26         O  0.85273613  0.14478072  0.78383075    -0.82000
O27         O  0.87802310  0.19061675  0.70499212    -0.80300
O28         O  0.88019740  0.18642757  0.79543646    -0.84500
O29         O  0.83405608  0.22035111  0.77504405    -0.79300
O30         O  0.88413833  0.11318013  0.74992395    -0.81100
O31         O  0.90357808  0.24634792  0.72848460    -0.83800
C32         C  0.81570681  0.20897851  0.76293715     0.96900
C33         C  0.86768319  0.15831150  0.79818694     1.04400
O34         O  0.87760397  0.18791069  0.75052132    -1.12800
O35         O  0.93444487  0.19323163  0.75238792    -0.75200
O36         O  0.91559465  0.23190577  0.77384061    -0.78700
O37         O  0.81981830  0.18337317  0.75032481    -0.79400
C38         C  0.93585126  0.21529207  0.76738277     0.95800
O39         O  0.87017676  0.26078965  0.75004746    -0.77400
O40         O  0.91161346  0.13892758  0.72708697    -0.82600
C41         C  0.86051759  0.16753114  0.70161718     0.98500
C42         C  0.90487558  0.11277922  0.73818535     1.04400
O43         O  0.85113756  0.14842362  0.71648586    -0.78200
C44         C  0.88689346  0.26834419  0.73567025     1.02700
Fe45       Fe  0.60427160  0.30681540  0.97562405     1.65800
Fe46       Fe  0.65274416  0.33796184  0.00596486     1.73200
Fe47       Fe  0.59700016  0.38569272  0.99946025     1.54400
O48         O  0.58525880  0.38742373  0.96655100    -0.82000
O49         O  0.63881881  0.34609338  0.03584582    -0.80300
O50         O  0.60258098  0.33997581  0.95081986    -0.84500
O51         O  0.56475144  0.31657479  0.98196124    -0.79300
O52         O  0.62818480  0.41960651  0.99200746    -0.81100
O53         O  0.64687165  0.28419532  0.01074231    -0.83800
C54         C  0.55286203  0.33163527  0.99716454     0.96900
C55         C  0.59103324  0.36920024  0.94986639     1.04400
O56         O  0.61783554  0.34401075  0.99389146    -1.12800
O57         O  0.66845198  0.33095440  0.97631980    -0.75200
O58         O  0.64167946  0.28917621  0.96556762    -0.78700
O59         O  0.56375374  0.35583265  0.00797781    -0.79400
C60         C  0.66432384  0.30373737  0.96564262     0.95800
O61         O  0.60531902  0.27283735  0.00053426    -0.77400
O62         O  0.66361279  0.38978816  0.00296628    -0.82600
C63         C  0.62458061  0.36997166  0.04379104     0.98500
C64         C  0.65296929  0.41751518  0.99611636     1.04400
O65         O  0.60829516  0.38787432  0.03243032    -0.78200
C66         C  0.62667697  0.26397532  0.00984117     1.02700
Fe67       Fe  0.66502241  0.30042327  0.26415183     1.65800
Fe68       Fe  0.62114555  0.33942208  0.23202591     1.73200
Fe69       Fe  0.67668117  0.38260308  0.24754797     1.54400
O70         O  0.68557290  0.37852159  0.28063577    -0.82000
O71         O  0.63975883  0.35049942  0.20409720    -0.80300
O72         O  0.66740177  0.32873831  0.29154892    -0.84500
O73         O  0.70545321  0.30666948  0.25881356    -0.79300
O74         O  0.64471780  0.41468982  0.25605268    -0.81100
O75         O  0.62397296  0.28632019  0.22496753    -0.83800
C76         C  0.71978897  0.32614896  0.24728439     0.96900
C77         C  0.67858257  0.35755803  0.29548552     1.04400
O78         O  0.65456190  0.34106120  0.24779899    -1.12800
O79         O  0.60080637  0.32962945  0.25948310    -0.75200
O80         O  0.62592512  0.28708843  0.27223296    -0.78700
O81         O  0.71091203  0.35419584  0.23919172    -0.79400
C82         C  0.60384347  0.30313880  0.27108519     0.95800
O83         O  0.66345653  0.27016742  0.23735858    -0.77400
O84         O  0.61249214  0.39136576  0.23628686    -0.82600
C85         C  0.65533426  0.37549197  0.20007768     0.98500
C86         C  0.62160424  0.41584269  0.24772845     1.04400
O87         O  0.66910180  0.39112957  0.21449693    -0.78200
C88         C  0.64279563  0.26433474  0.22630816     1.02700
Fe89       Fe  0.36418755  0.21534496  0.27551701     1.65800
Fe90       Fe  0.39501417  0.18785515  0.23144378     1.73200
Fe91       Fe  0.34424290  0.14130552  0.25192443     1.54400
O92         O  0.34591831  0.13500274  0.28615495    -0.82000
O93         O  0.36766941  0.18578337  0.20724720    -0.80300
O94         O  0.37166611  0.17838741  0.29792174    -0.84500
O95         O  0.32344850  0.20911895  0.27863402    -0.79300
O96         O  0.37659575  0.10737120  0.25062917    -0.81100
O97         O  0.39062890  0.24163180  0.23161802    -0.83800
C98         C  0.30589183  0.19912828  0.26536177     0.96900
C99         C  0.36076260  0.14911627  0.30059764     1.04400
O100        O  0.36775300  0.18118645  0.25286373    -1.12800
O101        O  0.42411450  0.18992324  0.25456832    -0.75200
O102        O  0.40441281  0.22751315  0.27627998    -0.78700
O103        O  0.31056825  0.17402331  0.25258098    -0.79400
C104        C  0.42510585  0.21223640  0.26944492     0.95800
O105        O  0.35704104  0.25353639  0.25358080    -0.77400
O106        O  0.40327613  0.13546670  0.22819983    -0.82600
C107        C  0.35017185  0.16294024  0.20324747     0.98500
C108        C  0.39733605  0.10870209  0.23896313     1.04400
O109        O  0.34136772  0.14245343  0.21778512    -0.78200
C110        C  0.37311780  0.26233863  0.23898344     1.02700
Fe111      Fe  0.40954192  0.21703001  0.48011006     1.65800
Fe112      Fe  0.38306413  0.18395829  0.52435255     1.73200
Fe113      Fe  0.43229573  0.14126599  0.49869660     1.54400
O114        O  0.42851166  0.13939674  0.46443732    -0.82000
O115        O  0.41295780  0.18035632  0.54650185    -0.80300
O116        O  0.40046538  0.18232812  0.45644011    -0.84500
O117        O  0.44984817  0.21188154  0.47452672    -0.79300
O118        O  0.40022895  0.10673033  0.49958716    -0.81100
O119        O  0.38608460  0.23810733  0.52616944    -0.83800
C120        C  0.46845868  0.20195736  0.48678611     0.96900
C121        C  0.41183244  0.15401256  0.45168110     1.04400
O122        O  0.40832408  0.18045678  0.50113579    -1.12800
O123        O  0.35188607  0.18753942  0.50314716    -0.75200
O124        O  0.36932842  0.22776133  0.48213194    -0.78700
O125        O  0.46548504  0.17513707  0.49843647    -0.79400
C126        C  0.34947842  0.21081306  0.48902119     0.95800
O127        O  0.41801137  0.25313974  0.50340001    -0.77400
O128        O  0.37605419  0.13063130  0.52559076    -0.82600
C129        C  0.43012339  0.15643163  0.54832261     0.98500
C130        C  0.38087345  0.10573319  0.51274580     1.04400
O131        O  0.43731444  0.13754582  0.53242346    -0.78200
C132        C  0.40219426  0.26039504  0.51853512     1.02700
Fe133      Fe  0.17212039  0.31280873  0.77268551     1.65800
Fe134      Fe  0.12334304  0.34256642  0.74127710     1.73200
Fe135      Fe  0.17911364  0.39113774  0.74859419     1.54400
O136        O  0.18954679  0.39453094  0.78146942    -0.82000
O137        O  0.13643720  0.35374559  0.71133286    -0.80300
O138        O  0.17355675  0.34675561  0.79757568    -0.84500
O139        O  0.21161555  0.32229786  0.76666575    -0.79300
O140        O  0.14692359  0.42477689  0.75510507    -0.81100
O141        O  0.13069982  0.28963726  0.73519731    -0.83800
C142        C  0.22405733  0.33743606  0.75189248     0.96900
C143        C  0.18378087  0.37687916  0.79821477     1.04400
O144        O  0.15828004  0.34926152  0.75394029    -1.12800
O145        O  0.10689392  0.33299131  0.77037470    -0.75200
O146        O  0.13529369  0.29434344  0.78263833    -0.78700
O147        O  0.21340931  0.36171790  0.74103867    -0.79400
C148        C  0.11212280  0.30701716  0.78174742     0.95800
O149        O  0.17129678  0.27830904  0.74792825    -0.77400
O150        O  0.11142554  0.39327766  0.74598886    -0.82600
C151        C  0.15256920  0.37596921  0.70399064     0.98500
C152        C  0.12185437  0.42149335  0.75230790     1.04400
O153        O  0.16956104  0.39201999  0.71567211    -0.78200
C154        C  0.15085030  0.26962592  0.73721104     1.02700
Fe155      Fe  0.11066294  0.30836673  0.48116236     1.65800
Fe156      Fe  0.15644527  0.34245553  0.51357877     1.73200
Fe157      Fe  0.10229546  0.38963794  0.50080912     1.54400
O158        O  0.09255982  0.38781065  0.46762069    -0.82000
O159        O  0.13897307  0.35250235  0.54202303    -0.80300
O160        O  0.11025934  0.33867921  0.45464392    -0.84500
O161        O  0.07076129  0.31795957  0.48575832    -0.79300
O162        O  0.13496171  0.42140805  0.49324413    -0.81100
O163        O  0.15070917  0.28968782  0.51918874    -0.83800
C164        C  0.05819530  0.33491389  0.49981122     0.96900
C165        C  0.09887199  0.36775824  0.45194861     1.04400
O166        O  0.12302294  0.34729383  0.49853181    -1.12800
O167        O  0.17555837  0.33261423  0.48544623    -0.75200
O168        O  0.14883788  0.29100945  0.47366030    -0.78700
O169        O  0.06819522  0.36126726  0.50919380    -0.79400
C170        C  0.17167380  0.30493589  0.47500102     0.95800
O171        O  0.11014335  0.27678303  0.50738968    -0.77400
O172        O  0.16725655  0.39412611  0.51085303    -0.82600
C173        C  0.12484854  0.37827039  0.54737501     0.98500
C174        C  0.15835207  0.42061195  0.50122559     1.04400
O175        O  0.11089098  0.39562481  0.53395269    -0.78200
C176        C  0.13086049  0.26922125  0.51796807     1.02700
Fe177      Fe  0.66990200  0.80292918  0.76138452     1.65800
Fe178      Fe  0.62527394  0.84158492  0.72990201     1.73200
Fe179      Fe  0.67772155  0.88810577  0.74882810     1.54400
O180        O  0.68476578  0.88071672  0.78198789    -0.82000
O181        O  0.64385925  0.85952145  0.70328030    -0.80300
O182        O  0.66882494  0.82817586  0.78994865    -0.84500
O183        O  0.70982821  0.81349508  0.75779881    -0.79300
O184        O  0.64391751  0.91715854  0.75722121    -0.81100
O185        O  0.63223478  0.79043105  0.71989070    -0.83800
C186        C  0.72320781  0.83476504  0.74684382     0.96900
C187        C  0.67753201  0.85770717  0.79557794     1.04400
O188        O  0.65781090  0.84457940  0.74660850    -1.12800
O189        O  0.60446528  0.82521082  0.75591374    -0.75200
O190        O  0.63177776  0.78425371  0.76758232    -0.78700
O191        O  0.71342733  0.86323999  0.74014290    -0.79400
C192        C  0.60896274  0.79827330  0.76674853     0.95800
O193        O  0.67159394  0.77586007  0.73329596    -0.77400
O194        O  0.61285594  0.89085931  0.73759270    -0.82600
C195        C  0.65864209  0.88589458  0.70090660     0.98500
C196        C  0.62032551  0.91536372  0.74976528     1.04400
O197        O  0.67154547  0.90017852  0.71625961    -0.78200
C198        C  0.65186248  0.76963691  0.72126805     1.02700
Fe199      Fe  0.60909650  0.81584062  0.47982236     1.65800
Fe200      Fe  0.65724636  0.84954630  0.50985023     1.73200
Fe201      Fe  0.60106436  0.89547275  0.50185962     1.54400
O202        O  0.58937333  0.89568437  0.46910544    -0.82000
O203        O  0.64271001  0.85766528  0.53958897    -0.80300
O204        O  0.60658786  0.84749940  0.45429902    -0.84500
O205        O  0.56943172  0.82402001  0.48648304    -0.79300
O206        O  0.63210131  0.92875042  0.49315179    -0.81100
O207        O  0.65285384  0.79586382  0.51466442    -0.83800
C208        C  0.55773217  0.83926504  0.50170388     0.96900
C209        C  0.59572798  0.87703951  0.45280729     1.04400
O210        O  0.62227275  0.85406885  0.49736772    -1.12800
O211        O  0.67318361  0.84254161  0.48023743    -0.75200
O212        O  0.64668157  0.79997898  0.46987855    -0.78700
O213        O  0.56807183  0.86526209  0.51131260    -0.79400
C214        C  0.66914476  0.81497867  0.46981482     0.95800
O215        O  0.61125834  0.78311853  0.50531484    -0.77400
O216        O  0.66709755  0.90163612  0.50717935    -0.82600
C217        C  0.62895410  0.88285245  0.54651082     0.98500
C218        C  0.65649651  0.92808497  0.49868237     1.04400
O219        O  0.61281189  0.89990755  0.53455115    -0.78200
C220        C  0.63307359  0.77506400  0.51419275     1.02700
Fe221      Fe  0.40651652  0.71296407  0.98088953     1.65800
Fe222      Fe  0.37654119  0.68209732  0.02411817     1.73200
Fe223      Fe  0.42554921  0.63534821  0.00061315     1.54400
O224        O  0.42166940  0.63108812  0.96683783    -0.82000
O225        O  0.40550421  0.67836579  0.04715050    -0.80300
O226        O  0.39896822  0.67839879  0.95728914    -0.84500
O227        O  0.44701319  0.70775754  0.97744848    -0.79300
O228        O  0.39257638  0.60232336  0.00224298    -0.81100
O229        O  0.37962225  0.73640417  0.02504971    -0.83800
C230        C  0.46525525  0.69244201  0.98775082     0.96900
C231        C  0.40720835  0.64798598  0.95357397     1.04400
O232        O  0.40319641  0.67658362  0.00198871    -1.12800
O233        O  0.34692714  0.68483115  0.00139479    -0.75200
O234        O  0.36626415  0.72391076  0.98060636    -0.78700
O235        O  0.46044890  0.66567024  0.99903742    -0.79400
C236        C  0.34602950  0.70649096  0.98620005     0.95800
O237        O  0.41355920  0.74947773  0.00398093    -0.77400
O238        O  0.36826013  0.62954632  0.02663038    -0.82600
C239        C  0.42292835  0.65471149  0.04954102     0.98500
C240        C  0.37276993  0.60327592  0.01488581     1.04400
O241        O  0.43032038  0.63473335  0.03422764    -0.78200
C242        C  0.39636765  0.75812341  0.01774428     1.02700
Fe243      Fe  0.36847327  0.71707107  0.77819276     1.65800
Fe244      Fe  0.39621766  0.69068648  0.73236697     1.73200
Fe245      Fe  0.34794398  0.64286343  0.75467096     1.54400
O246        O  0.34819715  0.63746688  0.78828742    -0.82000
O247        O  0.36685910  0.68868735  0.70959127    -0.80300
O248        O  0.37522264  0.67912806  0.80024400    -0.84500
O249        O  0.32739704  0.71203569  0.78084040    -0.79300
O250        O  0.38125592  0.61016205  0.75385788    -0.81100
O251        O  0.39240774  0.74443401  0.73278052    -0.83800
C252        C  0.30945953  0.70010051  0.76841448     0.96900
C253        C  0.36281000  0.65092048  0.80284857     1.04400
O254        O  0.37076104  0.68359528  0.75505704    -1.12800
O255        O  0.42687832  0.69262748  0.75390456    -0.75200
O256        O  0.40926768  0.72697692  0.77876014    -0.78700
O257        O  0.31415273  0.67501802  0.75552670    -0.79400
C258        C  0.42919086  0.71231430  0.77005616     0.95800
O259        O  0.36191717  0.75715569  0.75729563    -0.77400
O260        O  0.40418974  0.63812668  0.72893315    -0.82600
C261        C  0.35190433  0.66282161  0.70605039     0.98500
C262        C  0.40084656  0.61194132  0.74096156     1.04400
O263        O  0.34534179  0.64177888  0.72089716    -0.78200
C264        C  0.37658640  0.76571003  0.74172702     1.02700
Fe265      Fe  0.11401974  0.79143512  0.98245536     1.65800
Fe266      Fe  0.16494150  0.82415474  0.00962891     1.73200
Fe267      Fe  0.10830283  0.87192539  0.00477656     1.54400
O268        O  0.09724098  0.87377124  0.97161584    -0.82000
O269        O  0.15415383  0.83674192  0.03997748    -0.80300
O270        O  0.11130258  0.82348444  0.95726413    -0.84500
O271        O  0.07494813  0.80087117  0.98963122    -0.79300
O272        O  0.13967330  0.90582836  0.99768957    -0.81100
O273        O  0.15862407  0.77153264  0.01712770    -0.83800
C274        C  0.06264083  0.81873477  0.00329545     0.96900
C275        C  0.10206917  0.85396558  0.95538753     1.04400
O276        O  0.12885320  0.82965165  0.99935144    -1.12800
O277        O  0.17852423  0.81336901  0.97955315    -0.75200
O278        O  0.14989768  0.77254617  0.97080612    -0.78700
O279        O  0.07368695  0.84395686  0.01310255    -0.79400
C280        C  0.17237636  0.78682485  0.96882559     0.95800
O281        O  0.11673634  0.75907048  0.00802722    -0.77400
O282        O  0.17616362  0.87469898  0.00377838    -0.82600
C283        C  0.13800253  0.85791500  0.04855491     0.98500
C284        C  0.16485112  0.90299584  0.99898508     1.04400
O285        O  0.11961501  0.87328482  0.03778491    -0.78200
C286        C  0.13826098  0.75161614  0.01760999     1.02700
Fe287      Fe  0.16913692  0.80417287  0.26989450     1.65800
Fe288      Fe  0.12935644  0.84143063  0.23368704     1.73200
Fe289      Fe  0.18168134  0.88599965  0.25336447     1.54400
O290        O  0.18740098  0.88171320  0.28708024    -0.82000
O291        O  0.15180192  0.85181100  0.20753262    -0.80300
O292        O  0.16728506  0.83274738  0.29719615    -0.84500
O293        O  0.20988384  0.81184618  0.26824431    -0.79300
O294        O  0.14832176  0.91723894  0.25934331    -0.81100
O295        O  0.13425394  0.78833086  0.22758419    -0.83800
C296        C  0.22469841  0.83005334  0.25633942     0.96900
C297        C  0.17906725  0.86094129  0.30164461     1.04400
O298        O  0.16018170  0.84419579  0.25236428    -1.12800
O299        O  0.10549086  0.83161122  0.25925700    -0.75200
O300        O  0.12938096  0.78979002  0.27436537    -0.78700
O301        O  0.21636148  0.85744896  0.24714491    -0.79400
C302        C  0.10740738  0.80542971  0.27128050     0.95800
O303        O  0.17211933  0.77345151  0.24336877    -0.77400
O304        O  0.11918815  0.89357185  0.23671911    -0.82600
C305        C  0.16697968  0.87751685  0.20447737     0.98500
C306        C  0.12625484  0.91790627  0.24922952     1.04400
O307        O  0.17782144  0.89463082  0.21983295    -0.78200
C308        C  0.15311971  0.76685657  0.23070440     1.02700
Fe309      Fe  0.86409400  0.72823756  0.27184582     1.65800
Fe310      Fe  0.89421315  0.69230754  0.22953599     1.73200
Fe311      Fe  0.84576577  0.64796326  0.25468054     1.54400
O312        O  0.84839429  0.64756275  0.28870072    -0.82000
O313        O  0.86524420  0.68646778  0.20682407    -0.80300
O314        O  0.86983841  0.69642908  0.29736885    -0.84500
O315        O  0.82306206  0.72402867  0.27387080    -0.79300
O316        O  0.87905264  0.61525012  0.25482277    -0.81100
O317        O  0.89116141  0.74581846  0.22617230    -0.83800
C318        C  0.80555638  0.70645126  0.26393462     0.96900
C319        C  0.86137920  0.66645503  0.30201991     1.04400
O320        O  0.86783995  0.68936001  0.25210459    -1.12800
O321        O  0.92393153  0.69827754  0.25166992    -0.75200
O322        O  0.90496420  0.73805453  0.27261145    -0.78700
O323        O  0.81103954  0.67803790  0.25443723    -0.79400
C324        C  0.92535441  0.72160383  0.26598608     0.95800
O325        O  0.85834214  0.76289900  0.24736557    -0.77400
O326        O  0.90261815  0.63952220  0.22895042    -0.82600
C327        C  0.84827153  0.66224159  0.20504742     0.98500
C328        C  0.89844672  0.61465193  0.24176001     1.04400
O329        O  0.84143968  0.64323362  0.22092352    -0.78200
C330        C  0.87478415  0.76869030  0.23250940     1.02700
Fe331      Fe  0.90563839  0.72778698  0.48329395     1.65800
Fe332      Fe  0.87472971  0.69057739  0.52442164     1.73200
Fe333      Fe  0.92688091  0.65034691  0.50120029     1.54400
O334        O  0.92594913  0.64959838  0.46730862    -0.82000
O335        O  0.90282515  0.68764818  0.54799306    -0.80300
O336        O  0.90094470  0.69503132  0.45792772    -0.84500
O337        O  0.94688744  0.72603920  0.48130019    -0.79300
O338        O  0.89568726  0.61485115  0.49981033    -0.81100
O339        O  0.87513671  0.74465776  0.52735506    -0.83800
C340        C  0.96443821  0.71148483  0.49279532     0.96900
C341        C  0.91165252  0.66608430  0.45375659     1.04400
O342        O  0.90248217  0.68928459  0.50290719    -1.12800
O343        O  0.84581044  0.69395587  0.50133974    -0.75200
O344        O  0.86491746  0.73567478  0.48228552    -0.78700
O345        O  0.95966950  0.68365784  0.50296693    -0.79400
C346        C  0.84454806  0.71835222  0.48782396     0.95800
O347        O  0.90968037  0.76223650  0.50814340    -0.77400
O348        O  0.86918075  0.63697504  0.52474830    -0.82600
C349        C  0.92123607  0.66540534  0.55020028     0.98500
C350        C  0.87564023  0.61252632  0.51208490     1.04400
O351        O  0.92955854  0.64646185  0.53475421    -0.78200
C352        C  0.89144179  0.76806297  0.52162420     1.02700
Fe353      Fe  0.86890899  0.06418280  0.47690708     1.65800
Fe354      Fe  0.90040652  0.09469735  0.51997849     1.73200
Fe355      Fe  0.85202699  0.14259040  0.49708644     1.54400
O356        O  0.85419758  0.14558872  0.46319287    -0.82000
O357        O  0.87238440  0.09996076  0.54311043    -0.80300
O358        O  0.87677842  0.09840569  0.45296733    -0.84500
O359        O  0.82813415  0.07125517  0.47392546    -0.79300
O360        O  0.88552557  0.17445152  0.49780074    -0.81100
O361        O  0.89525454  0.04109046  0.52171873    -0.83800
C362        C  0.81091601  0.08691497  0.48521851     0.96900
C363        C  0.86785937  0.12856990  0.44941393     1.04400
O364        O  0.87360679  0.10072123  0.49801101    -1.12800
O365        O  0.92954212  0.08952017  0.49743378    -0.75200
O366        O  0.90905040  0.05120190  0.47648618    -0.78700
O367        O  0.81695682  0.11318155  0.49666348    -0.79400
C368        C  0.93000323  0.06647159  0.48298019     0.95800
O369        O  0.86136672  0.02813889  0.50027203    -0.77400
O370        O  0.91013488  0.14690940  0.52188128    -0.82600
C371        C  0.85610891  0.12463591  0.54598140     0.98500
C372        C  0.90554811  0.17319952  0.51027132     1.04400
O373        O  0.84870553  0.14477220  0.53083614    -0.78200
C374        C  0.87749069  0.02011207  0.51506874     1.02700
Fe375      Fe  0.90935971  0.05978268  0.26870323     1.65800
Fe376      Fe  0.87850800  0.09615658  0.22692477     1.73200
Fe377      Fe  0.93058825  0.13770542  0.25018968     1.54400
O378        O  0.92825660  0.14052886  0.28405909    -0.82000
O379        O  0.90637652  0.09935828  0.20325817    -0.80300
O380        O  0.90610585  0.09299558  0.29411513    -0.84500
O381        O  0.95039197  0.06051803  0.26971453    -0.79300
O382        O  0.89892197  0.17350393  0.24979816    -0.81100
O383        O  0.87907648  0.04241600  0.22389085    -0.83800
C384        C  0.96886768  0.07655812  0.26013607     0.96900
C385        C  0.91537762  0.12295215  0.29796435     1.04400
O386        O  0.90638013  0.09808198  0.24862673    -1.12800
O387        O  0.84984775  0.09296900  0.25009976    -0.75200
O388        O  0.86853631  0.05281351  0.27072967    -0.78700
O389        O  0.96457726  0.10523076  0.25055471    -0.79400
C390        C  0.84843556  0.07023440  0.26467575     0.95800
O391        O  0.91235258  0.02417053  0.24430538    -0.77400
O392        O  0.87206465  0.14920421  0.22587717    -0.82600
C393        C  0.92533982  0.12083420  0.20101998     0.98500
C394        C  0.87856254  0.17470835  0.23762049     1.04400
O395        O  0.93438761  0.13935183  0.21648916    -0.78200
C396        C  0.89504619  0.01890701  0.22990452     1.02700
Fe397      Fe  0.10890923  0.98146179  0.77262386     1.65800
Fe398      Fe  0.15931866  0.94487274  0.74633016     1.73200
Fe399      Fe  0.10236560  0.89889636  0.75345540     1.54400
O400        O  0.09131157  0.90071608  0.78610398    -0.82000
O401        O  0.14738714  0.93092954  0.71651358    -0.80300
O402        O  0.10465990  0.95227556  0.79934584    -0.84500
O403        O  0.06970787  0.97261333  0.76483708    -0.79300
O404        O  0.13344077  0.86539310  0.76201096    -0.81100
O405        O  0.15429892  0.99721737  0.73807738    -0.83800
C406        C  0.05750882  0.95317176  0.75183286     0.96900
C407        C  0.09559056  0.92175511  0.80175519     1.04400
O408        O  0.12331375  0.94123389  0.75723966    -1.12800
O409        O  0.17362824  0.95736431  0.77595819    -0.75200
O410        O  0.14569334  0.99971416  0.78357624    -0.78700
O411        O  0.06821967  0.92623938  0.74379329    -0.79400
C412        C  0.16844608  0.98573908  0.78514065     0.95800
O413        O  0.11250044  0.01146179  0.74590482    -0.77400
O414        O  0.16992463  0.89414251  0.75260096    -0.82600
C415        C  0.13127851  0.90827036  0.70939694     0.98500
C416        C  0.15844940  0.86686273  0.75900156     1.04400
O417        O  0.11335747  0.89390687  0.72095003    -0.78200
C418        C  0.13465075  0.01817101  0.73719079     1.02700
Fe419      Fe  0.16898725  0.97661640  0.48604769     1.65800
Fe420      Fe  0.12507088  0.94395422  0.52054846     1.73200
Fe421      Fe  0.17894425  0.89667320  0.50675300     1.54400
O422        O  0.18813296  0.89606572  0.47365593    -0.82000
O423        O  0.14440204  0.93640828  0.54867698    -0.80300
O424        O  0.17053893  0.94459294  0.46021686    -0.84500
O425        O  0.20904162  0.96946353  0.49167856    -0.79300
O426        O  0.14570130  0.86562001  0.49956573    -0.81100
O427        O  0.12918976  0.99741708  0.52462160    -0.83800
C428        C  0.22303118  0.95163490  0.50445227     0.96900
C429        C  0.18165818  0.91532668  0.45782126     1.04400
O430        O  0.15792803  0.93887550  0.50452442    -1.12800
O431        O  0.10429069  0.95057020  0.49283706    -0.75200
O432        O  0.13017389  0.98999742  0.47750164    -0.78700
O433        O  0.21378661  0.92504070  0.51403954    -0.79400
C434        C  0.10778766  0.97507630  0.47975324     0.95800
O435        O  0.16858324  0.01079244  0.51105892    -0.77400
O436        O  0.11504458  0.89200068  0.51937235    -0.82600
C437        C  0.15827824  0.91019994  0.55366086     1.14500
C438        C  0.12280367  0.86638880  0.50829790     1.04400
O439        O  0.17115065  0.89212747  0.53991381    -0.78200
C440        C  0.14831991  0.01854934  0.52203323     1.02700
Fe441      Fe  0.66729790  0.96744981  0.97819014     1.65800
Fe442      Fe  0.61719664  0.93598449  0.00649762     1.73200
Fe443      Fe  0.67348249  0.88830802  0.00168165     1.54400
O444        O  0.68539807  0.88564663  0.96896819    -0.82000
O445        O  0.62927583  0.92720400  0.03690521    -0.80300
O446        O  0.67032484  0.93429739  0.95320893    -0.84500
O447        O  0.70651812  0.95830324  0.98583442    -0.79300
O448        O  0.64244002  0.85440905  0.99384887    -0.81100
O449        O  0.62261521  0.98972844  0.01177959    -0.83800
C450        C  0.71839816  0.94198479  0.00049603     0.96900
C451        C  0.68042366  0.90414482  0.95232024     1.04400
O452        O  0.65291382  0.93012879  0.99579820    -1.12800
O453        O  0.60330683  0.94309797  0.97622683    -0.75200
O454        O  0.63052604  0.98504439  0.96692855    -0.78700
O455        O  0.70726637  0.91737202  0.01064976    -0.79400
C456        C  0.60786755  0.97066712  0.96617211     0.95800
O457        O  0.66464485  0.00135165  0.00323942    -0.77400
O458        O  0.60635555  0.88444227  0.00290662    -0.82600
C459        C  0.64407436  0.90419878  0.04519406     0.98500
C460        C  0.61748550  0.85655732  0.99691474     1.04400
O461        O  0.66140903  0.88713123  0.03433271    -0.78200
C462        C  0.64267120  0.01018525  0.01158010     1.02700
Fe463      Fe  0.60870022  0.98033690  0.26410758     1.65800
Fe464      Fe  0.65105860  0.94082284  0.23142383     1.73200
Fe465      Fe  0.59668284  0.89800744  0.24884850     1.54400
O466        O  0.58980958  0.90414814  0.28225571    -0.82000
O467        O  0.63140970  0.92771147  0.20420945    -0.80300
O468        O  0.61086895  0.95304715  0.29152675    -0.84500
O469        O  0.56826683  0.97177337  0.26216472    -0.79300
O470        O  0.62878034  0.86636636  0.25678618    -0.81100
O471        O  0.64591935  0.99350410  0.22373425    -0.83800
C472        C  0.55414347  0.95403307  0.24943900     0.96900
C473        C  0.59963489  0.92476224  0.29642368     1.04400
O474        O  0.61865338  0.93929542  0.24796790    -1.12800
O475        O  0.67256804  0.95278541  0.25826864    -0.75200
O476        O  0.64763545  0.99668151  0.26922011    -0.78700
O477        O  0.56283975  0.92664237  0.24047522    -0.79400
C478        C  0.66973057  0.98081650  0.26853485     0.95800
O479        O  0.60635043  0.00847210  0.23665054    -0.77400
O480        O  0.66060820  0.88910484  0.23642552    -0.82600
C481        C  0.61579150  0.90241905  0.20097819     0.98500
C482        C  0.65161080  0.86493452  0.24809211     1.04400
O483        O  0.60268466  0.88752177  0.21591199    -0.78200
C484        C  0.62642477  0.01467337  0.22509530     1.02700
Fe485      Fe  0.37127191  0.05644497  0.97938984     1.65800
Fe486      Fe  0.39849751  0.08952949  0.02355766     1.73200
Fe487      Fe  0.35017135  0.13339649  0.99757572     1.54400
O488        O  0.35312433  0.13349085  0.96359452    -0.82000
O489        O  0.36881872  0.09618535  0.04587936    -0.80300
O490        O  0.38142118  0.09060604  0.95613929    -0.84500
O491        O  0.33120359  0.06372581  0.97348596    -0.79300
O492        O  0.38283561  0.16653395  0.99778616    -0.81100
O493        O  0.39374197  0.03548206  0.02567121    -0.83800
C494        C  0.31277616  0.07468190  0.98556620     0.96900
C495        C  0.37002844  0.11874765  0.95121787     1.04400
O496        O  0.37325749  0.09330132  0.00036174    -1.12800
O497        O  0.42962586  0.08328793  0.00248967    -0.75200
O498        O  0.41113548  0.04348133  0.98154224    -0.78700
O499        O  0.31650786  0.10088694  0.99770283    -0.79400
C500        C  0.43140941  0.05978750  0.98833588     0.95800
O501        O  0.36183105  0.02095256  0.00248815    -0.77400
O502        O  0.40716524  0.14254285  0.02367725    -0.82600
C503        C  0.35250801  0.12127374  0.04726293     0.98500
C504        C  0.40251660  0.16723226  0.01067399     1.04400
O505        O  0.34576553  0.13941708  0.03103852    -0.78200
C506        C  0.37771869  0.01331944  0.01752301     1.02700
Fe507      Fe  0.40515315  0.06340447  0.77349740     1.65800
Fe508      Fe  0.37525707  0.09641515  0.73036290     1.73200
Fe509      Fe  0.42839208  0.13774348  0.75224044     1.54400
O510        O  0.42828342  0.14192119  0.78598208    -0.82000
O511        O  0.40320296  0.09774271  0.70636497    -0.80300
O512        O  0.40148817  0.09945943  0.79708453    -0.84500
O513        O  0.44606183  0.06426308  0.77530652    -0.79300
O514        O  0.39727171  0.17396164  0.75228547    -0.81100
O515        O  0.37589420  0.04222154  0.72901608    -0.83800
C516        C  0.46418193  0.07578027  0.76318212     0.96900
C517        C  0.41373779  0.12769384  0.80021160     1.04400
O518        O  0.40309355  0.09932322  0.75194963    -1.12800
O519        O  0.34592871  0.09528023  0.75346939    -0.75200
O520        O  0.36439541  0.05681229  0.77527653    -0.78700
O521        O  0.46089707  0.10318658  0.75210773    -0.79400
C522        C  0.34439592  0.07404672  0.76888507     0.95800
O523        O  0.40852132  0.02533035  0.75069065    -0.77400
O524        O  0.36975339  0.14976717  0.72861998    -0.82600
C525        C  0.42187273  0.11949307  0.70347000     0.98500
C526        C  0.37659744  0.17515289  0.74043618     1.04400
O527        O  0.43091472  0.13872006  0.71855384    -0.78200
C528        C  0.39142760  0.01901670  0.73629608     1.02700
Fe529      Fe  0.16681012  0.47002393  0.98802752     1.65800
Fe530      Fe  0.12203794  0.43097006  0.01878599     1.73200
Fe531      Fe  0.17621553  0.38612071  0.00202309     1.54400
O532        O  0.18436922  0.39274366  0.96882483    -0.82000
O533        O  0.14003083  0.41555641  0.04610079    -0.80300
O534        O  0.16629027  0.44385337  0.95995320    -0.84500
O535        O  0.20686936  0.46063489  0.99170735    -0.79300
O536        O  0.14328812  0.35540689  0.99340135    -0.81100
O537        O  0.12798357  0.48299163  0.02805847    -0.83800
C538        C  0.22021239  0.44119337  0.00391071     0.96900
C539        C  0.17646491  0.41488772  0.95486956     1.04400
O540        O  0.15518118  0.42855355  0.00303602    -1.12800
O541        O  0.10223069  0.44503024  0.99183543    -0.75200
O542        O  0.12843217  0.48787657  0.98143142    -0.78700
O543        O  0.21087798  0.41292170  0.01123346    -0.79400
C544        C  0.10603431  0.47265919  0.98153666     0.95800
O545        O  0.16804730  0.49712012  0.01600491    -0.77400
O546        O  0.11072560  0.38031103  0.01207624    -0.82600
C547        C  0.15548131  0.39019271  0.04944247     0.98500
C548        C  0.11962143  0.35555420  0.00074834     1.04400
O549        O  0.16922628  0.37551095  0.03474089    -0.78200
C550        C  0.14790913  0.50350410  0.02744233     1.02700
Fe551      Fe  0.10684086  0.48257450  0.26670318     1.65800
Fe552      Fe  0.15545102  0.44412110  0.23982630     1.73200
Fe553      Fe  0.09789255  0.39997401  0.24827808     1.54400
O554        O  0.08758739  0.40277679  0.28136880    -0.82000
O555        O  0.14210040  0.43110962  0.21038330    -0.80300
O556        O  0.10299028  0.45396058  0.29363699    -0.84500
O557        O  0.06738614  0.47503048  0.26013790    -0.79300
O558        O  0.12889377  0.36540289  0.25634846    -0.81100
O559        O  0.15155811  0.49644172  0.23161807    -0.83800
C560        C  0.05386940  0.45589425  0.24787760     0.96900
C561        C  0.09273698  0.42423134  0.29670606     1.04400
O562        O  0.11977645  0.44164198  0.25138418    -1.12800
O563        O  0.17075927  0.45587136  0.26919564    -0.75200
O564        O  0.14414673  0.49967338  0.27663580    -0.78700
O565        O  0.06361467  0.42862611  0.23931261    -0.79400
C566        C  0.16648765  0.48471472  0.27808739     0.95800
O567        O  0.11012132  0.51184160  0.23964874    -0.77400
O568        O  0.16527990  0.39324153  0.24579717    -0.82600
C569        C  0.12612462  0.40806836  0.20360059     0.98500
C570        C  0.15385838  0.36631863  0.25272096     1.04400
O571        O  0.10826060  0.39404442  0.21545683    -0.78200
C572        C  0.13221759  0.51776618  0.23062359     1.02700
Fe573      Fe  0.86682565  0.55775885  0.98048745     1.65800
Fe574      Fe  0.89780938  0.58905944  0.02392667     1.73200
Fe575      Fe  0.84847723  0.63573797  0.00059609     1.54400
O576        O  0.85056011  0.63875416  0.96666265    -0.82000
O577        O  0.87013437  0.59566750  0.04760824    -0.80300
O578        O  0.87365222  0.59206185  0.95644672    -0.84500
O579        O  0.82621307  0.56345411  0.97790488    -0.79300
O580        O  0.88213993  0.66836613  0.00118684    -0.81100
O581        O  0.89246368  0.53542206  0.02634643    -0.83800
C582        C  0.80805332  0.57869958  0.98838637     0.96900
C583        C  0.86415481  0.62186549  0.95279220     1.04400
O584        O  0.87081139  0.59431578  0.00179460    -1.12800
O585        O  0.92705556  0.58295337  0.00140362    -0.75200
O586        O  0.90701029  0.54583347  0.97943311    -0.78700
O587        O  0.81313223  0.60549747  0.99980648    -0.79400
C588        C  0.92773627  0.56114430  0.98623347     0.95800
O589        O  0.86010055  0.52133427  0.00361200    -0.77400
O590        O  0.90791957  0.64125285  0.02473714    -0.82600
C591        C  0.85274019  0.61925406  0.04997127     0.98500
C592        C  0.90290755  0.66724308  0.01296834     1.04400
O593        O  0.84474111  0.63817235  0.03440515    -0.78200
C594        C  0.87562490  0.51382499  0.01888752     1.02700
Fe595      Fe  0.90803585  0.56615341  0.77251295     1.65800
Fe596      Fe  0.87975417  0.59849973  0.72884567     1.73200
Fe597      Fe  0.92902134  0.64287065  0.75365541     1.54400
O598        O  0.92543165  0.64516240  0.78764178    -0.82000
O599        O  0.90916988  0.60210146  0.70645623    -0.80300
O600        O  0.89940923  0.60033857  0.79630404    -0.84500
O601        O  0.94845197  0.57145880  0.77757437    -0.79300
O602        O  0.89672262  0.67710807  0.75208137    -0.81100
O603        O  0.88273232  0.54431208  0.72752329    -0.83800
C604        C  0.96701551  0.58398335  0.76628925     0.96900
C605        C  0.91012821  0.62918050  0.80074759     1.04400
O606        O  0.90571489  0.60287385  0.75161179    -1.12800
O607        O  0.84942935  0.59526465  0.75072234    -0.75200
O608        O  0.86786778  0.55484476  0.77112900    -0.78700
O609        O  0.96301501  0.61057296  0.75461913    -0.79400
C610        C  0.84778027  0.57212448  0.76500386     0.95800
O611        O  0.91621345  0.53046887  0.74912845    -0.77400
O612        O  0.87233640  0.65151844  0.72681804    -0.82600
C613        C  0.92632808  0.62606616  0.70446429     0.98500
C614        C  0.87747571  0.67748211  0.73873152     1.04400
O615        O  0.93371366  0.64537242  0.72010638    -0.78200
C616        C  0.89945522  0.52248023  0.73479881     1.02700
Fe617      Fe  0.61247605  0.48714157  0.76529925     1.65800
Fe618      Fe  0.66138736  0.44875066  0.73675114     1.73200
Fe619      Fe  0.60422684  0.40329543  0.74740069     1.54400
O620        O  0.59606936  0.40414965  0.78057613    -0.82000
O621        O  0.64805694  0.43005290  0.70806439    -0.80300
O622        O  0.60587849  0.45795949  0.79170617    -0.84500
O623        O  0.57396165  0.48148263  0.75574141    -0.79300
O624        O  0.63640132  0.36962457  0.75371605    -0.81100
O625        O  0.65569252  0.49935854  0.72565122    -0.83800
C626        C  0.55979170  0.45956534  0.74602111     0.96900
C627        C  0.59871055  0.42700065  0.79539465     1.04400
O628        O  0.62584949  0.44616996  0.74965025    -1.12800
O629        O  0.67851443  0.46579169  0.76437873    -0.75200
O630        O  0.64876373  0.50187258  0.77813460    -0.78700
O631        O  0.56850457  0.42980289  0.74058868    -0.79400
C632        C  0.67200645  0.48943589  0.77734206     0.95800
O633        O  0.61779926  0.51894986  0.73963587    -0.77400
O634        O  0.67280551  0.39989378  0.74611340    -0.82600
C635        C  0.62925142  0.41055364  0.70174859     0.98500
C636        C  0.66161092  0.37225021  0.75215659     1.04400
O637        O  0.61108738  0.39909302  0.71419315    -0.78200
C638        C  0.63748279  0.52221721  0.72721455     1.02700
Fe639      Fe  0.67074019  0.48023364  0.47697412     1.65800
Fe640      Fe  0.62198168  0.44949883  0.50740894     1.73200
Fe641      Fe  0.67739849  0.40079259  0.49975666     1.54400
O642        O  0.68837805  0.39897677  0.46682735    -0.82000
O643        O  0.63539286  0.43879247  0.53736584    -0.80300
O644        O  0.67221676  0.44742364  0.45169640    -0.84500
O645        O  0.71016592  0.47027078  0.48323584    -0.79300
O646        O  0.64543760  0.36751713  0.49252070    -0.81100
O647        O  0.62874005  0.50259838  0.51331177    -0.83800
C648        C  0.72250211  0.45394831  0.49764923     0.96900
C649        C  0.68297055  0.41769674  0.45037553     1.04400
O650        O  0.65685931  0.44305486  0.49497112    -1.12800
O651        O  0.60573698  0.45848511  0.47800557    -0.75200
O652        O  0.63376855  0.49851005  0.46695757    -0.78700
O653        O  0.71159198  0.42952351  0.50812937    -0.79400
C654        C  0.61079963  0.48502564  0.46708428     0.95800
O655        O  0.66989602  0.51394704  0.50217179    -0.77400
O656        O  0.61053011  0.39862409  0.50319478    -0.82600
C657        C  0.65049939  0.41508592  0.54445403     0.98500
C658        C  0.62063389  0.37057889  0.49634873     1.04400
O659        O  0.66701581  0.39856019  0.53258094    -0.78200
C660        C  0.64896860  0.52262468  0.51214065     1.02700
Fe661      Fe  0.37210980  0.56036809  0.48000121     1.65800
Fe662      Fe  0.40435243  0.59092710  0.52331258     1.73200
Fe663      Fe  0.35476727  0.63828757  0.50148966     1.54400
O664        O  0.35606272  0.64320687  0.46766176    -0.82000
O665        O  0.37671322  0.59501910  0.54728689    -0.80300
O666        O  0.37639719  0.59530943  0.45600536    -0.84500
O667        O  0.33086853  0.56401174  0.47961845    -0.79300
O668        O  0.38803202  0.67123020  0.50220223    -0.81100
O669        O  0.40111647  0.53685723  0.52441519    -0.83800
C670        C  0.31392774  0.58037393  0.49081686     0.96900
C671        C  0.36815785  0.62590233  0.45313488     1.04400
O672        O  0.37685630  0.59659642  0.50161359    -1.12800
O673        O  0.43281009  0.58734894  0.50018939    -0.75200
O674        O  0.41280725  0.55156088  0.47718028    -0.78700
O675        O  0.31993900  0.60790577  0.50116474    -0.79400
C676        C  0.43338540  0.56731494  0.48408755     0.95800
O677        O  0.36810213  0.52224082  0.50254920    -0.77400
O678        O  0.41352498  0.64353047  0.52555052    -0.82600
C679        C  0.35976158  0.61900359  0.55031076     0.98500
C680        C  0.40856170  0.67003903  0.51418967     1.04400
O681        O  0.35193356  0.63903879  0.53525195    -0.78200
C682        C  0.38500322  0.51455971  0.51678756     1.02700
Fe683      Fe  0.40602681  0.55731156  0.27299384     1.65800
Fe684      Fe  0.37653325  0.59301358  0.23037454     1.73200
Fe685      Fe  0.42849816  0.63339224  0.25362942     1.54400
O686        O  0.42758842  0.63631596  0.28754114    -0.82000
O687        O  0.40505952  0.59303727  0.20705853    -0.80300
O688        O  0.40273357  0.59137853  0.29776601    -0.84500
O689        O  0.44752382  0.55724325  0.27449420    -0.79300
O690        O  0.39740181  0.66873130  0.25410670    -0.81100
O691        O  0.37510516  0.53884647  0.22903133    -0.83800
C692        C  0.46548041  0.57223079  0.26360489     0.96900
C693        C  0.41357717  0.62038573  0.30147204     1.04400
O694        O  0.40392980  0.59461553  0.25236418    -1.12800
O695        O  0.34751989  0.59312476  0.25325110    -0.75200
O696        O  0.36478150  0.55243500  0.27436123    -0.78700
O697        O  0.46105345  0.59999454  0.25323351    -0.79400
C698        C  0.34524390  0.57085183  0.26801033     0.95800
O699        O  0.40872427  0.52082447  0.24918310    -0.77400
O700        O  0.37234248  0.64674494  0.22817492    -0.82600
C701        C  0.42289305  0.61598839  0.20448942     0.98500
C702        C  0.37792764  0.67103118  0.24121983     1.04400
O703        O  0.43116423  0.63541176  0.21982568    -0.78200
C704        C  0.39052489  0.51504909  0.23562073     1.02700
C705        C  0.44192916  0.64108357  0.37603445    -0.18100
C706        C  0.43510840  0.64230425  0.39772593    -0.20300
C707        C  0.40832768  0.64425331  0.40402067     0.20400
C708        C  0.38824445  0.64635705  0.38832269    -0.03200
C709        C  0.39514900  0.64507674  0.36637604    -0.06300
C710        C  0.42211330  0.64179168  0.36019268     0.20700
C711        C  0.37497091  0.64502702  0.35069309     0.18800
C712        C  0.34822456  0.64769600  0.35698222    -0.17700
C713        C  0.34140664  0.64897197  0.37867954    -0.20000
C714        C  0.36119081  0.64758490  0.39453497     0.20300
C715        C  0.35438021  0.64501793  0.41636223    -0.33000
C716        C  0.37432262  0.64082558  0.43192895     0.01000
C717        C  0.40122333  0.64173444  0.42565820    -0.24300
C718        C  0.42861781  0.63720078  0.33842832    -0.28900
C719        C  0.40842578  0.63534201  0.32289661     0.06700
C720        C  0.38175958  0.64021712  0.32911412    -0.27600
H721        H  0.46269071  0.63856560  0.37166782     0.11400
H722        H  0.45077370  0.64064642  0.40960918     0.12500
H723        H  0.33248715  0.64775245  0.34511294     0.11600
H724        H  0.32057513  0.64995244  0.38306056     0.10800
H725        H  0.33365727  0.64338321  0.42102540     0.16200
H726        H  0.41662390  0.63779008  0.43758742     0.12100
H727        H  0.44908236  0.63254928  0.33378648     0.15000
H728        H  0.36611787  0.63814928  0.31719407     0.14800
C729        C  0.52812603  0.59574684  0.47706190    -0.18100
C730        C  0.55409404  0.58452973  0.47320633    -0.20300
C731        C  0.55868970  0.55192618  0.46390878     0.20400
C732        C  0.53696279  0.53135527  0.45711983    -0.03200
C733        C  0.51077804  0.54284488  0.46080400    -0.06300
C734        C  0.50643613  0.57459644  0.47152812     0.20700
C735        C  0.48905976  0.52132635  0.45529509     0.18800
C736        C  0.49366998  0.48946611  0.44506005    -0.17700
C737        C  0.51965122  0.47770979  0.44179842    -0.20000
C738        C  0.54135989  0.49794699  0.44848947     0.20300
C739        C  0.56708761  0.48403933  0.44877883    -0.33000
C740        C  0.58823882  0.50327975  0.45749810     0.01000
C741        C  0.58438796  0.53805664  0.46337734    -0.24300
C742        C  0.48067444  0.58351499  0.47785776    -0.28900
C743        C  0.45924465  0.56098934  0.47376778     0.06700
C744        C  0.46333077  0.53085926  0.46151794    -0.27600
H745        H  0.52504669  0.62028845  0.48518951     0.11400
H746        H  0.57057481  0.60054624  0.47853051     0.12500
H747        H  0.47718501  0.47280780  0.44058523     0.11600
H748        H  0.52273198  0.45214931  0.43497802     0.10800
H749        H  0.57019836  0.45712279  0.44433298     0.16200
H750        H  0.60071912  0.55264525  0.47037853     0.12100
H751        H  0.47752437  0.60717943  0.48693069     0.15000
H752        H  0.44681917  0.51353647  0.45818544     0.14800
C753        C  0.68562772  0.38241928  0.61604437    -0.18100
C754        C  0.68223563  0.38164863  0.63825461    -0.20300
C755        C  0.65739069  0.38923366  0.64740439     0.20400
C756        C  0.63542772  0.39611358  0.63406890    -0.03200
C757        C  0.63893207  0.39727371  0.61165162    -0.06300
C758        C  0.66429037  0.39107102  0.60258029     0.20700
C759        C  0.61732558  0.40614592  0.59841967     0.18800
C760        C  0.59215379  0.41196729  0.60747723    -0.17700
C761        C  0.58865069  0.41062357  0.62964928    -0.20000
C762        C  0.61027247  0.40351424  0.64316355     0.20300
C763        C  0.60753859  0.40544180  0.66555800    -0.33000
C764        C  0.62982863  0.40090466  0.67882554     0.01000
C765        C  0.65444780  0.39177796  0.66963914    -0.24300
C766        C  0.66808650  0.39511307  0.58038421    -0.28900
C767        C  0.64694364  0.40617587  0.56735755     0.06700
C768        C  0.62147290  0.41047461  0.57646745    -0.27600
H769        H  0.70515879  0.37731287  0.60944985     0.11400
H770        H  0.69925363  0.37600805  0.64832191     0.12500
H771        H  0.57529851  0.41851039  0.59744111     0.11600
H772        H  0.56919664  0.41617388  0.63625779     0.10800
H773        H  0.58863225  0.41276477  0.67255488     0.16200
H774        H  0.67166475  0.38810353  0.67987307     0.12100
H775        H  0.68764602  0.39141137  0.57348094     0.15000
H776        H  0.60484391  0.41810501  0.56645392     0.14800
C777        C  0.72794506  0.58935340  0.78323040    -0.18100
C778        C  0.75383937  0.60082093  0.77921241    -0.20300
C779        C  0.77532845  0.57772191  0.78066242     0.20400
C780        C  0.77101203  0.54354401  0.78793650    -0.03200
C781        C  0.74495661  0.53198234  0.79196287    -0.06300
C782        C  0.72324083  0.55461325  0.78867279     0.20700
C783        C  0.74046965  0.49681993  0.79707334     0.18800
C784        C  0.76209389  0.47438743  0.80008377    -0.17700
C785        C  0.78796061  0.48596407  0.79633939    -0.20000
C786        C  0.79244681  0.52005156  0.78947947     0.20300
C787        C  0.81772364  0.53035853  0.78286882    -0.33000
C788        C  0.82176122  0.56351095  0.77421536     0.01000
C789        C  0.80074133  0.58748718  0.77377121    -0.24300
C790        C  0.69737919  0.54107237  0.78823261    -0.28900
C791        C  0.69351691  0.50513315  0.78987417     0.06700
C792        C  0.71457179  0.48375493  0.79640958    -0.27600
H793        H  0.71149558  0.60708986  0.78081061     0.11400
H794        H  0.75689900  0.62727340  0.77396044     0.12500
H795        H  0.75890728  0.44739556  0.80413215     0.11600
H796        H  0.80430605  0.46778057  0.79776289     0.10800
H797        H  0.83394851  0.51182816  0.78334021     0.16200
H798        H  0.80398434  0.61330518  0.76746811     0.12100
H799        H  0.68100143  0.55750666  0.78324214     0.15000
H800        H  0.71132853  0.45603818  0.79790247     0.14800
C801        C  0.84399370  0.65040918  0.85689783    -0.18100
C802        C  0.83718986  0.64936433  0.87861847    -0.20300
C803        C  0.85700083  0.64647263  0.89438656     0.20400
C804        C  0.88403802  0.64599303  0.88810827    -0.03200
C805        C  0.89092778  0.64735664  0.86616677    -0.06300
C806        C  0.87076118  0.64879256  0.85049522     0.20700
C807        C  0.91791742  0.64529112  0.85989360     0.18800
C808        C  0.93774486  0.64284896  0.87564429    -0.17700
C809        C  0.93093526  0.64126431  0.89730294    -0.20000
C810        C  0.90416300  0.64223976  0.90365768     0.20300
C811        C  0.89715330  0.63753936  0.92515313    -0.33000
C812        C  0.87030556  0.63646728  0.93148432     0.01000
C813        C  0.85027754  0.64203378  0.91612903    -0.24300
C814        C  0.87763735  0.64643164  0.82874925    -0.28900
C815        C  0.90440917  0.64286250  0.82240174     0.06700
C816        C  0.92450226  0.64350392  0.83802857    -0.27600
H817        H  0.82824549  0.65157181  0.84506311     0.11400
H818        H  0.81636209  0.64978110  0.88304331     0.12500
H819        H  0.95852314  0.64114731  0.87118148     0.11600
H820        H  0.94662191  0.63838174  0.90907525     0.10800
H821        H  0.91260914  0.63272146  0.93691053     0.16200
H822        H  0.82957040  0.64037453  0.92083034     0.12100
H823        H  0.86204632  0.64515351  0.81675111     0.15000
H824        H  0.94502903  0.63968719  0.83326886     0.14800
C825        C  0.28327969  0.49028028  0.30197124    -0.18100
C826        C  0.25730614  0.47799893  0.30404667    -0.20300
C827        C  0.23579046  0.49825502  0.29718472     0.20400
C828        C  0.24026629  0.53207290  0.28936102    -0.03200
C829        C  0.26648961  0.54427524  0.28700415    -0.06300
C830        C  0.28805712  0.52285216  0.29285244     0.20700
C831        C  0.27115278  0.57676604  0.27737263     0.18800
C832        C  0.24952756  0.59774337  0.27150211    -0.17700
C833        C  0.22346630  0.58572149  0.27395968    -0.20000
C834        C  0.21870724  0.55251660  0.28224531     0.20300
C835        C  0.19313183  0.53813255  0.28169100    -0.33000
C836        C  0.18928143  0.50320916  0.28723349     0.01000
C837        C  0.21023261  0.48409758  0.29615389    -0.24300
C838        C  0.31399600  0.53324361  0.28813278    -0.28900
C839        C  0.31865681  0.56421691  0.27700312     0.06700
C840        C  0.29727303  0.58660593  0.27249318    -0.27600
H841        H  0.29967472  0.47365130  0.30660436     0.11400
H842        H  0.25412128  0.45207148  0.31016738     0.12500
H843        H  0.25278411  0.62283998  0.26421366     0.11600
H844        H  0.20711338  0.60172043  0.26846015     0.10800
H845        H  0.17695919  0.55270992  0.27453478     0.16200
H846        H  0.20711889  0.45713785  0.30038944     0.12100
H847        H  0.33037971  0.51592740  0.29176478     0.15000
H848        H  0.30079805  0.61079599  0.26417736     0.14800
C849        C  0.98833461  0.47115572  0.96037236    -0.18100
C850        C  0.01429570  0.45848122  0.95918560    -0.20300
C851        C  0.03594845  0.48062245  0.96298300     0.20400
C852        C  0.03162187  0.51629867  0.96668631    -0.03200
C853        C  0.00542600  0.52902624  0.96805100    -0.06300
C854        C  0.98372223  0.50608364  0.96547650     0.20700
C855        C  0.00098445  0.56404260  0.97364773     0.18800
C856        C  0.02270190  0.58658777  0.97620124    -0.17700
C857        C  0.04872605  0.57396949  0.97480227    -0.20000
C858        C  0.05335380  0.53863979  0.97082246     0.20300
C859        C  0.07898485  0.52465361  0.97285410    -0.33000
C860        C  0.08273123  0.48862963  0.97142946     0.01000
C861        C  0.06157475  0.46713431  0.96508580    -0.24300
C862        C  0.95792062  0.51780987  0.96964075    -0.28900
C863        C  0.95370609  0.55171953  0.97713897     0.06700
C864        C  0.97507396  0.57519143  0.97814350    -0.27600
H865        H  0.97186596  0.45330097  0.95827859     0.11400
H866        H  0.01739516  0.43105353  0.95625433     0.12500
H867        H  0.01957252  0.61362572  0.98027007     0.11600
H868        H  0.06517746  0.59148674  0.97787319     0.10800
H869        H  0.09533259  0.54120131  0.97784660     0.16200
H870        H  0.06462580  0.43934219  0.96378736     0.12100
H871        H  0.94141704  0.49972197  0.96875804     0.15000
H872        H  0.97170670  0.60158233  0.98355784     0.14800
C873        C  0.09670950  0.36235147  0.13252572    -0.18100
C874        C  0.10181722  0.35803572  0.11066343    -0.20300
C875        C  0.12688739  0.36631030  0.10217362     0.20400
C876        C  0.14739603  0.37752821  0.11591884    -0.03200
C877        C  0.14219576  0.38199426  0.13793668    -0.06300
C878        C  0.11655479  0.37509386  0.14628608     0.20700
C879        C  0.16235856  0.39486913  0.15139299     0.18800
C880        C  0.18773223  0.40191265  0.14310871    -0.17700
C881        C  0.19280463  0.39779120  0.12130980    -0.20000
C882        C  0.17263453  0.38635004  0.10748140     0.20300
C883        C  0.17663200  0.38605497  0.08526124    -0.33000
C884        C  0.15561834  0.37740734  0.07150739     0.01000
C885        C  0.13123791  0.36605944  0.08004950    -0.24300
C886        C  0.11102828  0.38232213  0.16799000    -0.28900
C887        C  0.13083760  0.39681686  0.18117150     0.06700
C888        C  0.15662617  0.40180191  0.17277575    -0.27600
H889        H  0.07699850  0.35666653  0.13855234     0.11400
H890        H  0.08587912  0.34926807  0.10027366     0.12500
H891        H  0.20344532  0.41166048  0.15339337     0.11600
H892        H  0.21226012  0.40457385  0.11517254     0.10800
H893        H  0.19515198  0.39561240  0.07864536     0.16200
H894        H  0.11487718  0.36001663  0.06931595     0.12100
H895        H  0.09126169  0.37797864  0.17432911     0.15000
H896        H  0.17240552  0.41194071  0.18287324     0.14800
C897        C  0.34493581  0.15630464  0.87836240    -0.18100
C898        C  0.35159974  0.15840436  0.85667971    -0.20300
C899        C  0.37800210  0.15355443  0.84999430     0.20400
C900        C  0.39813443  0.14820035  0.86535919    -0.03200
C901        C  0.39137130  0.14587249  0.88724786    -0.06300
C902        C  0.36453586  0.14922217  0.89376063     0.20700
C903        C  0.41122193  0.13806096  0.90242364     0.18800
C904        C  0.43777497  0.13441205  0.89583036    -0.17700
C905        C  0.44446886  0.13676313  0.87418386    -0.20000
C906        C  0.42472241  0.14275600  0.85874417     0.20300
C907        C  0.43068801  0.14067863  0.83680423    -0.33000
C908        C  0.41028705  0.14329688  0.82154146     0.01000
C909        C  0.38426593  0.15123988  0.82819341    -0.24300
C910        C  0.35760901  0.14338841  0.91528856    -0.28900
C911        C  0.37715428  0.13344177  0.93014378     0.06700
C912        C  0.40397953  0.13199002  0.92370523    -0.27600
H913        H  0.32428421  0.15904484  0.88300188     0.11400
H914        H  0.33592408  0.16262069  0.84505502     0.12500
H915        H  0.45325876  0.12856306  0.90734810     0.11600
H916        H  0.46495000  0.13260756  0.86944809     0.10800
H917        H  0.45059610  0.13371292  0.83170397     0.16200
H918        H  0.36845999  0.15262842  0.81638408     0.12100
H919        H  0.33691088  0.14410305  0.92010786     0.15000
H920        H  0.41911590  0.12433528  0.93514591     0.14800
C921        C  0.48942790  0.97359377  0.95391263    -0.18100
C922        C  0.51484945  0.96163742  0.94880217    -0.20300
C923        C  0.53713907  0.98277622  0.95237427     0.20400
C924        C  0.53374377  0.01699542  0.96002054    -0.03200
C925        C  0.50811803  0.02891826  0.96540325    -0.06300
C926        C  0.48598392  0.00678980  0.96273408     0.20700
C927        C  0.50486687  0.06212836  0.97463905     0.18800
C928        C  0.52708425  0.08381669  0.97728408    -0.17700
C929        C  0.55253314  0.07198807  0.97194476    -0.20000
C930        C  0.55612959  0.03826912  0.96392221     0.20300
C931        C  0.58171576  0.02421127  0.96187758    -0.33000
C932        C  0.58488600  0.98883396  0.95704491     0.01000
C933        C  0.56279098  0.96910618  0.95058464    -0.24300
C934        C  0.46094472  0.01762906  0.96974789    -0.28900
C935        C  0.45771335  0.05004322  0.97978940     0.06700
C936        C  0.47965392  0.07246291  0.98183278    -0.27600
H937        H  0.47256825  0.95641102  0.95168974     0.11400
H938        H  0.51717763  0.93534090  0.94291522     0.12500
H939        H  0.52490494  0.10947809  0.98418698     0.11600
H940        H  0.56951198  0.08863294  0.97501416     0.10800
H941        H  0.59877133  0.03938655  0.96701130     0.16200
H942        H  0.56534856  0.94182850  0.94677991     0.12100
H943        H  0.44412094  0.00019205  0.96810086     0.15000
H944        H  0.47718908  0.09767131  0.98931018     0.14800
C945        C  0.66913121  0.85829255  0.11732111    -0.18100
C946        C  0.66414699  0.85667189  0.13935807    -0.20300
C947        C  0.64092515  0.87135433  0.14802605     0.20400
C948        C  0.62206626  0.88662643  0.13428394    -0.03200
C949        C  0.62721746  0.88850190  0.11210915    -0.06300
C950        C  0.65108541  0.87482783  0.10354060     0.20700
C951        C  0.60889404  0.90529093  0.09866057     0.18800
C952        C  0.58525792  0.91896213  0.10713964    -0.17700
C953        C  0.58023586  0.91727963  0.12904496    -0.20000
C954        C  0.59869973  0.90175053  0.14281702     0.20300
C955        C  0.59501352  0.90311175  0.16503839    -0.33000
C956        C  0.61449048  0.88988638  0.17879948     0.01000
C957        C  0.63697829  0.87305878  0.17024130    -0.24300
C958        C  0.65676648  0.87896283  0.08155062    -0.28900
C959        C  0.63895191  0.89710801  0.06825634     0.06700
C960        C  0.61477004  0.90921019  0.07702743    -0.27600
H961        H  0.68745394  0.84741822  0.11114422     0.11400
H962        H  0.67880308  0.84471102  0.14970062     0.12500
H963        H  0.57094424  0.93179865  0.09688469     0.11600
H964        H  0.56222981  0.92895236  0.13528266     0.10800
H965        H  0.57813088  0.91694883  0.17166258     0.16200
H966        H  0.65234575  0.86364762  0.18095503     0.12100
H967        H  0.67521622  0.86906381  0.07499822     0.15000
H968        H  0.60034810  0.92236382  0.06701322     0.14800
C969        C  0.22323071  0.08897521  0.78270405    -0.18100
C970        C  0.24900289  0.10126380  0.77893113    -0.20300
C971        C  0.27114875  0.08008156  0.78301521     0.20400
C972        C  0.26739815  0.04740141  0.79269182    -0.03200
C973        C  0.24144073  0.03488741  0.79630922    -0.06300
C974        C  0.21925438  0.05524925  0.79047005     0.20700
C975        C  0.23774897  0.00070902  0.80378753     0.18800
C976        C  0.25987194  0.98063037  0.80954409    -0.17700
C977        C  0.28558029  0.99325303  0.80631181    -0.20000
C978        C  0.28946549  0.02595175  0.79706405     0.20300
C979        C  0.31484022  0.03634623  0.79062752    -0.33000
C980        C  0.31841626  0.06727280  0.77911522     0.01000
C981        C  0.29670043  0.08981559  0.77621920    -0.24300
C982        C  0.19382320  0.04021145  0.79030646    -0.28900
C983        C  0.19074637  0.00477133  0.79494510     0.06700
C984        C  0.21232717  0.98595590  0.80320294    -0.27600
H985        H  0.20640620  0.10506863  0.77835295     0.11400
H986        H  0.25153180  0.12663499  0.77182086     0.12500
H987        H  0.25731889  0.95448156  0.81549793     0.11600
H988        H  0.30238566  0.97665783  0.80993501     0.10800
H989        H  0.33150603  0.01898297  0.79319376     0.16200
H990        H  0.29944558  0.11407483  0.76779626     0.12100
H991        H  0.17718385  0.05472611  0.78383280     0.15000
H992        H  0.20985165  0.95868621  0.80693135     0.14800
C993        C  0.19189304  0.90144067  0.64842239    -0.18100
C994        C  0.19617686  0.90191009  0.62635006    -0.20300
C995        C  0.17479474  0.89774973  0.61213015     0.20400
C996        C  0.14896790  0.89161335  0.62033227    -0.03200
C997        C  0.14462616  0.89124054  0.64262363    -0.06300
C998        C  0.16613381  0.89696771  0.65662604     0.20700
C999        C  0.11860336  0.88686537  0.65085025     0.18800
C1000       C  0.09740803  0.88123689  0.63662648    -0.17700
C1001       C  0.10168554  0.88166384  0.61452723    -0.20000
C1002       C  0.12724760  0.88764189  0.60627933     0.20300
C1003       C  0.13124322  0.89146666  0.58427882    -0.33000
C1004       C  0.15659667  0.89922882  0.57609939     0.01000
C1005       C  0.17849850  0.90132184  0.58995167    -0.24300
C1006       C  0.16134944  0.90000888  0.67853094    -0.28900
C1007       C  0.13529284  0.89822672  0.68677862     0.06700
C1008       C  0.11409199  0.89007340  0.67300288    -0.27600
H1009       H  0.20861958  0.90569020  0.65907841     0.11400
H1010       H  0.21610106  0.90647498  0.62040682     0.12500
H1011       H  0.07737294  0.87759273  0.64256983     0.11600
H1012       H  0.08484522  0.87831764  0.60386896     0.10800
H1013       H  0.11435336  0.88999054  0.57347507     0.16200
H1014       H  0.19794554  0.90773440  0.58362380     0.12100
H1015       H  0.17793489  0.90538528  0.68916926     0.15000
H1016       H  0.09405417  0.88838026  0.67928710     0.14800
C1017       C  0.72711497  0.08198633  0.27025634    -0.18100
C1018       C  0.75303138  0.09487967  0.26924833    -0.20300
C1019       C  0.77468080  0.07350573  0.27436144     0.20400
C1020       C  0.77018934  0.03954170  0.28190457    -0.03200
C1021       C  0.74408450  0.02640910  0.28271449    -0.06300
C1022       C  0.72255726  0.04750698  0.27629685     0.20700
C1023       C  0.73976523  0.99136302  0.28821969     0.18800
C1024       C  0.76129123  0.97068822  0.29464480    -0.17700
C1025       C  0.78718517  0.98389455  0.29414857    -0.20000
C1026       C  0.79187400  0.01781676  0.28701062     0.20300
C1027       C  0.81782287  0.02943597  0.28324803    -0.33000
C1028       C  0.82220254  0.06195832  0.27375763     0.01000
C1029       C  0.80069842  0.08456262  0.27046856    -0.24300
C1030       C  0.69721236  0.03295880  0.27427270    -0.28900
C1031       C  0.69348468  0.99732750  0.27755574     0.06700
C1032       C  0.71440857  0.97695121  0.28548801    -0.27600
H1033       H  0.71075813  0.09845608  0.26531946     0.11400
H1034       H  0.75620501  0.12107831  0.26357492     0.12500
H1035       H  0.75823399  0.94386669  0.29914459     0.11600
H1036       H  0.80363189  0.96701829  0.29829637     0.10800
H1037       H  0.83438837  0.01198933  0.28600709     0.16200
H1038       H  0.80406658  0.10994534  0.26356550     0.12100
H1039       H  0.68104080  0.04854506  0.26797387     0.15000
H1040       H  0.71134479  0.94944127  0.28810326     0.14800
C1041       C  0.01485168  0.95847624  0.46067895    -0.18100
C1042       C  0.98908158  0.97185680  0.46175277    -0.20300
C1043       C  0.98504303  0.00745174  0.46510127     0.20400
C1044       C  0.00705975  0.03016586  0.46603369    -0.03200
C1045       C  0.03303301  0.01675260  0.46451350    -0.06300
C1046       C  0.03688531  0.98058650  0.46268568     0.20700
C1047       C  0.05511609  0.03918681  0.46661013     0.18800
C1048       C  0.05102797  0.07498210  0.46905415    -0.17700
C1049       C  0.02524341  0.08822059  0.47087821    -0.20000
C1050       C  0.00321578  0.06588382  0.47004277     0.20300
C1051       C  0.97758999  0.07818623  0.47445320    -0.33000
C1052       C  0.95586800  0.05525013  0.47461032     0.01000
C1053       C  0.95951413  0.02032810  0.46895583    -0.24300
C1054       C  0.06250437  0.96695215  0.46490143    -0.28900
C1055       C  0.08413718  0.98902635  0.46906368     0.06700
C1056       C  0.08070726  0.02512896  0.46830574    -0.27600
H1057       H  0.01754224  0.93068645  0.45916036     0.11400
H1058       H  0.97234263  0.95416755  0.46094288     0.12500
H1059       H  0.06778331  0.09251493  0.47064117     0.11600
H1060       H  0.02257986  0.11573841  0.47374695     0.10800
H1061       H  0.97466923  0.10525637  0.47860683     0.16200
H1062       H  0.94274825  0.00260895  0.46916418     0.12100
H1063       H  0.06528994  0.93905855  0.46537496     0.15000
H1064       H  0.09742098  0.04211902  0.47167448     0.14800
C1065       C  0.93526227  0.14858353  0.39434447    -0.18100
C1066       C  0.94229568  0.14758163  0.37267534    -0.20300
C1067       C  0.92260131  0.14629972  0.35672772     0.20400
C1068       C  0.89550344  0.14785263  0.36276858    -0.03200
C1069       C  0.88839260  0.14925939  0.38467359    -0.06300
C1070       C  0.90838861  0.14856919  0.40050679     0.20700
C1071       C  0.86127528  0.14906844  0.39072027     0.18800
C1072       C  0.84158701  0.14896357  0.37477284    -0.17700
C1073       C  0.84860752  0.14722840  0.35313833    -0.20000
C1074       C  0.87546492  0.14584967  0.34700791     0.20300
C1075       C  0.88256963  0.14049068  0.32553765    -0.33000
C1076       C  0.90943353  0.13734976  0.31945608     0.01000
C1077       C  0.92942902  0.14141183  0.33502812    -0.24300
C1078       C  0.90116435  0.14544956  0.42211593    -0.28900
C1079       C  0.87422969  0.14315606  0.42817018     0.06700
C1080       C  0.85435421  0.14647596  0.41249241    -0.27600
H1081       H  0.95087812  0.14824480  0.40631390     0.11400
H1082       H  0.96316739  0.14656554  0.36842261     0.12500
H1083       H  0.82070741  0.14890993  0.37904865     0.11600
H1084       H  0.83297332  0.14591448  0.34120623     0.10800
H1085       H  0.86710588  0.13693162  0.31359921     0.16200
H1086       H  0.95010018  0.13829919  0.33049973     0.12100
H1087       H  0.91653546  0.14240018  0.43416629     0.15000
H1088       H  0.83363928  0.14395457  0.41703496     0.14800
C1089       C  0.94272052  0.58213710  0.63199646    -0.18100
C1090       C  0.94223962  0.58773123  0.60992615    -0.20300
C1091       C  0.94014753  0.62147584  0.60178770     0.20400
C1092       C  0.93982091  0.65000880  0.61604642    -0.03200
C1093       C  0.94067253  0.64438241  0.63834120    -0.06300
C1094       C  0.94137687  0.61021566  0.64630137     0.20700
C1095       C  0.93921719  0.67279508  0.65263849     0.18800
C1096       C  0.93788736  0.70662064  0.64446783    -0.17700
C1097       C  0.93673587  0.71217147  0.62238367    -0.20000
C1098       C  0.93706478  0.68400186  0.60809241     0.20300
C1099       C  0.93305671  0.68902762  0.58612911    -0.33000
C1100       C  0.93186575  0.66054018  0.57200735     0.01000
C1101       C  0.93666685  0.62700579  0.57978051    -0.24300
C1102       C  0.93907362  0.60460779  0.66834277    -0.28900
C1103       C  0.93615184  0.63265457  0.68259621     0.06700
C1104       C  0.93740664  0.66674721  0.67475074    -0.27600
H1105       H  0.94337485  0.55575285  0.63788324     0.11400
H1106       H  0.94254205  0.56556014  0.59923342     0.12500
H1107       H  0.93680110  0.72873199  0.65517177     0.11600
H1108       H  0.93477381  0.73845338  0.61650584     0.10800
H1109       H  0.92949600  0.71497892  0.58012837     0.16200
H1110       H  0.93552137  0.60500300  0.56896852     0.12100
H1111       H  0.93803661  0.57828655  0.67434818     0.15000
H1112       H  0.93471327  0.68840821  0.68563701     0.14800
C1113       C  0.05716295  0.78624116  0.53984144    -0.18100
C1114       C  0.03511217  0.76419522  0.53767601    -0.20300
C1115       C  0.02478330  0.75613496  0.51737074     0.20400
C1116       C  0.03702507  0.77029796  0.49906359    -0.03200
C1117       C  0.05967847  0.79199599  0.50123089    -0.06300
C1118       C  0.06958485  0.80029676  0.52173928     0.20700
C1119       C  0.07197805  0.80606739  0.48290968     0.18800
C1120       C  0.06132570  0.79855779  0.46264530    -0.17700
C1121       C  0.03863459  0.77764737  0.46053235    -0.20000
C1122       C  0.02628776  0.76344388  0.47861676     0.20300
C1123       C  0.00306623  0.74320834  0.47664305    -0.33000
C1124       C  0.99079014  0.72881389  0.49477121     0.01000
C1125       C  0.00204188  0.73497378  0.51507587    -0.24300
C1126       C  0.09122307  0.82327426  0.52379799    -0.28900
C1127       C  0.10360514  0.83743727  0.50563153     0.06700
C1128       C  0.09413419  0.82826366  0.48521317    -0.27600
H1129       H  0.06445095  0.79241401  0.55571881     0.11400
H1130       H  0.02590228  0.75381916  0.55192699     0.12500
H1131       H  0.07033517  0.80927585  0.44840895     0.11600
H1132       H  0.03065784  0.77270079  0.44470918     0.10800
H1133       H  0.99430963  0.73892930  0.46099877     0.16200
H1134       H  0.99230728  0.72472562  0.52915268     0.12100
H1135       H  0.09810958  0.83086456  0.53957968     0.15000
H1136       H  0.10304537  0.83996207  0.47121705     0.14800
C1137       C  0.83255243  0.90710124  0.52290240    -0.18100
C1138       C  0.83458548  0.87097291  0.52431137    -0.20300
C1139       C  0.85928055  0.85526605  0.52837662     0.20400
C1140       C  0.88184872  0.87620894  0.53225479    -0.03200
C1141       C  0.87969789  0.91265068  0.53117534    -0.06300
C1142       C  0.85513565  0.92808090  0.52571867     0.20700
C1143       C  0.90251410  0.93347738  0.53418206     0.18800
C1144       C  0.92697614  0.91785438  0.53910279    -0.17700
C1145       C  0.92921610  0.88174405  0.53975011    -0.20000
C1146       C  0.90694686  0.86073685  0.53578765     0.20300
C1147       C  0.90966731  0.82468861  0.53391269    -0.33000
C1148       C  0.88755230  0.80395217  0.52895708     0.01000
C1149       C  0.86220548  0.81911281  0.52719894    -0.24300
C1150       C  0.85400908  0.96388931  0.52183839    -0.28900
C1151       C  0.87708546  0.98438572  0.52352499     0.06700
C1152       C  0.90090494  0.96930382  0.53078222    -0.27600
H1153       H  0.81350393  0.91855529  0.51889096     0.11400
H1154       H  0.81705983  0.85526941  0.52136039     0.12500
H1155       H  0.94463814  0.93352150  0.54154025     0.11600
H1156       H  0.94855262  0.87023927  0.54266494     0.10800
H1157       H  0.92918873  0.81287751  0.53520920     0.16200
H1158       H  0.84521164  0.80306921  0.52304171     0.12100
H1159       H  0.83551502  0.97551864  0.51650756     0.15000
H1160       H  0.91876687  0.98496370  0.53210398     0.14800
C1161       C  0.82815379  0.52161718  0.47084322    -0.18100
C1162       C  0.80651742  0.49886315  0.46892979    -0.20300
C1163       C  0.79038540  0.49151534  0.48665513     0.20400
C1164       C  0.79671998  0.50618686  0.50670341    -0.03200
C1165       C  0.81840332  0.52954749  0.50857564    -0.06300
C1166       C  0.83394926  0.53771404  0.49047939     0.20700
C1167       C  0.82367029  0.54601035  0.52830006     0.18800
C1168       C  0.80812448  0.53769101  0.54619158    -0.17700
C1169       C  0.78680627  0.51440036  0.54437637    -0.20000
C1170       C  0.78053316  0.49902943  0.52461636     0.20300
C1171       C  0.75751305  0.47837773  0.52216276    -0.33000
C1172       C  0.75018531  0.46557164  0.50190975     0.01000
C1173       C  0.76717551  0.47145405  0.48440222    -0.24300
C1174       C  0.85408553  0.56307523  0.49208420    -0.28900
C1175       C  0.85833692  0.58115077  0.51140045     0.06700
C1176       C  0.84349657  0.57170576  0.52956053    -0.27600
H1177       H  0.83985528  0.52745567  0.45678614     0.11400
H1178       H  0.80198478  0.48769564  0.45342556     0.12500
H1179       H  0.81200373  0.54993300  0.56150105     0.11600
H1180       H  0.77471130  0.50923057  0.55831609     0.10800
H1181       H  0.74420866  0.47468500  0.53557735     0.16200
H1182       H  0.76141900  0.46204497  0.46869881     0.12100
H1183       H  0.86524897  0.57030148  0.47797764     0.15000
H1184       H  0.84674609  0.58529510  0.54454443     0.14800
C1185       C  0.83271564  0.69901507  0.11008997    -0.18100
C1186       C  0.83186874  0.70499616  0.13219090    -0.20300
C1187       C  0.83298525  0.67718281  0.14661503     0.20400
C1188       C  0.83372528  0.64292269  0.13868575    -0.03200
C1189       C  0.83491345  0.63690382  0.11634254    -0.06300
C1190       C  0.83487636  0.66512428  0.10196975     0.20700
C1191       C  0.83759051  0.60277198  0.10847768     0.18800
C1192       C  0.83756488  0.57488598  0.12287207    -0.17700
C1193       C  0.83609798  0.58081952  0.14494538    -0.20000
C1194       C  0.83485258  0.61476090  0.15308042     0.20300
C1195       C  0.83654236  0.62110650  0.17525416    -0.33000
C1196       C  0.83805016  0.65527184  0.18312534     0.01000
C1197       C  0.83513561  0.68310875  0.16873782    -0.24300
C1198       C  0.83843065  0.65908023  0.07989761    -0.28900
C1199       C  0.84282222  0.62525006  0.07211179     0.06700
C1200       C  0.84161199  0.59721107  0.08649975    -0.27600
H1201       H  0.83256632  0.72101393  0.09936468     0.11400
H1202       H  0.83114879  0.73148378  0.13801548     0.12500
H1203       H  0.83942879  0.54847498  0.11708515     0.11600
H1204       H  0.83690439  0.55886712  0.15568994     0.10800
H1205       H  0.83908020  0.59957252  0.18616644     0.16200
H1206       H  0.83622138  0.70953041  0.17469237     0.12100
H1207       H  0.83963492  0.68084778  0.06902376     0.15000
H1208       H  0.84490316  0.57104452  0.08066112     0.14800
C1209       C  0.70749291  0.77082742  0.21892709    -0.18100
C1210       C  0.72892025  0.74783717  0.22125349    -0.20300
C1211       C  0.74158119  0.74384524  0.24114171     0.20400
C1212       C  0.73189189  0.76244391  0.25900584    -0.03200
C1213       C  0.70995781  0.78523116  0.25673564    -0.06300
C1214       C  0.69811203  0.79002084  0.23648683     0.20700
C1215       C  0.70064843  0.80432709  0.27454266     0.18800
C1216       C  0.71308625  0.80007961  0.29446353    -0.17700
C1217       C  0.73504556  0.77801173  0.29661877    -0.20000
C1218       C  0.74481676  0.75944659  0.27895326     0.20300
C1219       C  0.76796816  0.73918898  0.28069495    -0.33000
C1220       C  0.77827857  0.72133969  0.26287251     0.01000
C1221       C  0.76447132  0.72292973  0.24327573    -0.24300
C1222       C  0.67791816  0.81497816  0.23401051    -0.28900
C1223       C  0.66903134  0.83461818  0.25160025     0.06700
C1224       C  0.67991430  0.82848009  0.27191931    -0.27600
H1225       H  0.69856665  0.77407102  0.20328050     0.11400
H1226       H  0.73604059  0.73384885  0.20734888     0.12500
H1227       H  0.70626368  0.81453524  0.30828589     0.11600
H1228       H  0.74470075  0.77593844  0.31206272     0.10800
H1229       H  0.77858772  0.73826596  0.29578988     0.16200
H1230       H  0.77257034  0.70983849  0.22937374     0.12100
H1231       H  0.66966136  0.81997709  0.21828901     0.15000
H1232       H  0.67339535  0.84406603  0.28538685     0.14800
C1233       C  0.93062157  0.86856775  0.21568224    -0.18100
C1234       C  0.93374075  0.90457335  0.21549566    -0.20300
C1235       C  0.91140906  0.92633405  0.21626039     0.20400
C1236       C  0.88561703  0.91177544  0.21583668    -0.03200
C1237       C  0.88247646  0.87544193  0.21646246    -0.06300
C1238       C  0.90514067  0.85384002  0.21688769     0.20700
C1239       C  0.85677871  0.86090162  0.21825803     0.18800
C1240       C  0.83439836  0.88264682  0.21756240    -0.17700
C1241       C  0.83749449  0.91868145  0.21651388    -0.20000
C1242       C  0.86301958  0.93350096  0.21644077     0.20300
C1243       C  0.86640539  0.96945321  0.21868261    -0.33000
C1244       C  0.89202507  0.98355064  0.22130083     0.01000
C1245       C  0.91443226  0.96216127  0.21909645    -0.24300
C1246       C  0.90203866  0.81815165  0.22005122    -0.28900
C1247       C  0.87671491  0.80403260  0.22379944     0.06700
C1248       C  0.85406666  0.82523627  0.22215314    -0.27600
H1249       H  0.94819027  0.85228010  0.21589373     0.11400
H1250       H  0.95364569  0.91539100  0.21560163     0.12500
H1251       H  0.81453127  0.87187512  0.21864532     0.11600
H1252       H  0.81994615  0.93500088  0.21682785     0.10800
H1253       H  0.84909260  0.98599997  0.22045187     0.16200
H1254       H  0.93417790  0.97317615  0.22089230     0.12100
H1255       H  0.91953784  0.80184473  0.22146341     0.15000
H1256       H  0.83450943  0.81424899  0.22489482     0.14800
C1257       C  0.84643608  0.63412380  0.39853889    -0.18100
C1258       C  0.83887913  0.63441930  0.37691756    -0.20300
C1259       C  0.85769106  0.64113603  0.36086761     0.20400
C1260       C  0.88463349  0.64616849  0.36679120    -0.03200
C1261       C  0.89229462  0.64568634  0.38860789    -0.06300
C1262       C  0.87297676  0.64044055  0.40456832     0.20700
C1263       C  0.91902652  0.65242918  0.39447742     0.18800
C1264       C  0.93795553  0.65839629  0.37847894    -0.17700
C1265       C  0.93038361  0.65896609  0.35695909    -0.20000
C1266       C  0.90374893  0.65350827  0.35101296     0.20300
C1267       C  0.89575835  0.65711298  0.32966891    -0.33000
C1268       C  0.86888031  0.65380142  0.32362047     0.01000
C1269       C  0.84994118  0.64474914  0.33920251    -0.24300
C1270       C  0.88025913  0.64375774  0.42622121    -0.28900
C1271       C  0.90659099  0.65211795  0.43211005     0.06700
C1272       C  0.92604580  0.65526628  0.41620894    -0.27600
H1273       H  0.83134668  0.62991551  0.41059523     0.11400
H1274       H  0.81815359  0.63038119  0.37280033     0.12500
H1275       H  0.95851163  0.66363691  0.38264470     0.11600
H1276       H  0.94528312  0.66460813  0.34497386     0.10800
H1277       H  0.91037606  0.66433259  0.31774758     0.16200
H1278       H  0.82913939  0.64278497  0.33474643     0.12100
H1279       H  0.86511446  0.64203607  0.43849447     0.15000
H1280       H  0.94613778  0.66261452  0.42068382     0.14800
C1281       C  0.99083267  0.52507800  0.20523725    -0.18100
C1282       C  0.96957749  0.54863890  0.20480561    -0.20300
C1283       C  0.95362463  0.55384959  0.22295099     0.20400
C1284       C  0.95877196  0.53449322  0.24157405    -0.03200
C1285       C  0.98035123  0.51071048  0.24203344    -0.06300
C1286       C  0.99664830  0.50622189  0.22383541     0.20700
C1287       C  0.98632106  0.49262391  0.26098975     0.18800
C1288       C  0.97023047  0.49765191  0.27908406    -0.17700
C1289       C  0.94873535  0.52085252  0.27855310    -0.20000
C1290       C  0.94295984  0.53975182  0.25996261     0.20300
C1291       C  0.92228119  0.56458655  0.25966486    -0.33000
C1292       C  0.91756488  0.58488162  0.24134586     0.01000
C1293       C  0.93319513  0.57884029  0.22297606    -0.24300
C1294       C  0.01928008  0.48451759  0.22493213    -0.28900
C1295       C  0.02606319  0.46764273  0.24410049     0.06700
C1296       C  0.00908832  0.47133931  0.26188794    -0.27600
H1297       H  0.00308952  0.52215198  0.19112525     0.11400
H1298       H  0.96589895  0.56326187  0.19034284     0.12500
H1299       H  0.97455249  0.48404952  0.29381006     0.11600
H1300       H  0.93693546  0.52451728  0.29285308     0.10800
H1301       H  0.91068494  0.56920166  0.27398049     0.16200
H1302       H  0.92982106  0.59418795  0.20874168     0.12100
H1303       H  0.03273439  0.48294893  0.21144535     0.15000
H1304       H  0.01463967  0.45935777  0.27690701     0.14800
C1305       C  0.18167707  0.82827778  0.39891815    -0.18100
C1306       C  0.18059938  0.82121558  0.37692896    -0.20300
C1307       C  0.18347442  0.84804112  0.36193364     0.20400
C1308       C  0.18829459  0.88210283  0.36912247    -0.03200
C1309       C  0.18932217  0.88924157  0.39131757    -0.06300
C1310       C  0.18561351  0.86231064  0.40634340     0.20700
C1311       C  0.19319676  0.92355708  0.39843194     0.18800
C1312       C  0.19691565  0.95018509  0.38348572    -0.17700
C1313       C  0.19604025  0.94308712  0.36155651    -0.20000
C1314       C  0.19136674  0.90924325  0.35415821     0.20300
C1315       C  0.18908516  0.90228840  0.33211042    -0.33000
C1316       C  0.18332392  0.86860780  0.32479746     0.01000
C1317       C  0.18101291  0.84154510  0.33990955    -0.24300
C1318       C  0.18483282  0.87018139  0.42840099    -0.28900
C1319       C  0.18721399  0.90475792  0.43542430     0.06700
C1320       C  0.19223881  0.93098292  0.42032665    -0.27600
H1321       H  0.17888057  0.80721779  0.41011006     0.11400
H1322       H  0.17704710  0.79481481  0.37164700     0.12500
H1323       H  0.20000431  0.97668894  0.38876200     0.11600
H1324       H  0.19853745  0.96422215  0.35037297     0.10800
H1325       H  0.19102089  0.92323759  0.32071336     0.16200
H1326       H  0.17700463  0.81528037  0.33455129     0.12100
H1327       H  0.18090954  0.84986584  0.43990273     0.15000
H1328       H  0.19449043  0.95764835  0.42562426     0.14800
C1329       C  0.02899170  0.98872456  0.29103424    -0.18100
C1330       C  0.05092024  0.96648626  0.28957122    -0.20300
C1331       C  0.06850131  0.96873212  0.27225375     0.20400
C1332       C  0.06397696  0.99389684  0.25627949    -0.03200
C1333       C  0.04178229  0.01661010  0.25783220    -0.06300
C1334       C  0.02418099  0.01373896  0.27523097     0.20700
C1335       C  0.03682017  0.04149478  0.24176233     0.18800
C1336       C  0.05441814  0.04348751  0.22435343    -0.17700
C1337       C  0.07626186  0.02080492  0.22271530    -0.20000
C1338       C  0.08116900  0.99571080  0.23851385     0.20300
C1339       C  0.10242697  0.97180794  0.23664872    -0.33000
C1340       C  0.10698418  0.94666510  0.25258602     0.01000
C1341       C  0.09004115  0.94558609  0.27038529    -0.24300
C1342       C  0.00155741  0.03506763  0.27627124    -0.28900
C1343       C  0.99572268  0.05938482  0.26010603     0.06700
C1344       C  0.01392102  0.06297356  0.24306058    -0.27600
H1345       H  0.01558259  0.98608336  0.30446435     0.11400
H1346       H  0.05395774  0.94721929  0.30190294     0.12500
H1347       H  0.05105985  0.06226642  0.21179631     0.11600
H1348       H  0.08919782  0.02269096  0.20894279     0.10800
H1349       H  0.11503633  0.97219091  0.22261853     0.16200
H1350       H  0.09298644  0.92565886  0.28235163     0.12100
H1351       H  0.98789002  0.03190375  0.28950368     0.15000
H1352       H  0.00960619  0.08112571  0.23033276     0.14800
C1353       C  0.04680421  0.70717060  0.27551231    -0.18100
C1354       C  0.02059078  0.69531056  0.27391104    -0.20300
C1355       C  0.99924389  0.71836225  0.27658686     0.20400
C1356       C  0.00426275  0.75331264  0.28203945    -0.03200
C1357       C  0.03068841  0.76536902  0.28340952    -0.06300
C1358       C  0.05203231  0.74230718  0.27965185     0.20700
C1359       C  0.03567012  0.80095101  0.28701209     0.18800
C1360       C  0.01435194  0.82365906  0.29071868    -0.17700
C1361       C  0.98815207  0.81158452  0.28970606    -0.20000
C1362       C  0.98290787  0.77671437  0.28475512     0.20300
C1363       C  0.95678962  0.76535051  0.28114607    -0.33000
C1364       C  0.95188916  0.73126017  0.27414631     0.01000
C1365       C  0.97307774  0.70758179  0.27265866    -0.24300
C1366       C  0.07802042  0.75527920  0.27840245    -0.28900
C1367       C  0.08263648  0.79110317  0.27991966     0.06700
C1368       C  0.06166489  0.81360215  0.28520325    -0.27600
H1369       H  0.06296380  0.68916118  0.27261550     0.11400
H1370       H  0.01702078  0.66835075  0.26986032     0.12500
H1371       H  0.01790392  0.85100039  0.29363752     0.11600
H1372       H  0.97197893  0.82982115  0.29192224     0.10800
H1373       H  0.94050208  0.78370503  0.28227671     0.16200
H1374       H  0.96930597  0.68112960  0.26752136     0.12100
H1375       H  0.09419341  0.73802258  0.27406646     0.15000
H1376       H  0.06534027  0.84127581  0.28639267     0.14800
C1377       C  0.30934049  0.74563985  0.20771782    -0.18100
C1378       C  0.28814574  0.76902323  0.20980280    -0.20300
C1379       C  0.28209187  0.78386003  0.22973829     0.20400
C1380       C  0.29824936  0.77600983  0.24758649    -0.03200
C1381       C  0.31997736  0.75286198  0.24538477    -0.06300
C1382       C  0.32509482  0.73691597  0.22547443     0.20700
C1383       C  0.33577897  0.74446489  0.26332637     0.18800
C1384       C  0.33004675  0.75978493  0.28317888    -0.17700
C1385       C  0.30819625  0.78204717  0.28546235    -0.20000
C1386       C  0.29191036  0.78988967  0.26785368     0.20300
C1387       C  0.26867674  0.80988480  0.27034466    -0.33000
C1388       C  0.25206740  0.81700192  0.25274174     0.01000
C1389       C  0.25937211  0.80484366  0.23237056    -0.24300
C1390       C  0.34504475  0.71141276  0.22390710    -0.28900
C1391       C  0.36026981  0.70198018  0.24192114     0.06700
C1392       C  0.35614023  0.71961814  0.26137194    -0.27600
H1393       H  0.31305733  0.73379992  0.19227970     0.11400
H1394       H  0.27598349  0.77470054  0.19592876     0.12500
H1395       H  0.34196195  0.75367124  0.29712118     0.11600
H1396       H  0.30371946  0.79259649  0.30111900     0.10800
H1397       H  0.26285155  0.81871386  0.28612950     0.16200
H1398       H  0.24625580  0.80948722  0.21889424     0.12100
H1399       H  0.34816551  0.69810120  0.20882555     0.15000
H1400       H  0.36757722  0.71234264  0.27537139     0.14800
C1401       C  0.19134637  0.61679965  0.21986269    -0.18100
C1402       C  0.19439361  0.65283889  0.22010240    -0.20300
C1403       C  0.17210485  0.67455427  0.21819321     0.20400
C1404       C  0.14670757  0.65991510  0.21474687    -0.03200
C1405       C  0.14361374  0.62356994  0.21463321    -0.06300
C1406       C  0.16596088  0.60198264  0.21779645     0.20700
C1407       C  0.11792467  0.60897276  0.21297494     0.18800
C1408       C  0.09581772  0.63065193  0.21000192    -0.17700
C1409       C  0.09890421  0.66667842  0.20999220    -0.20000
C1410       C  0.12412957  0.68153433  0.21300192     0.20300
C1411       C  0.12687133  0.71741100  0.21593343    -0.33000
C1412       C  0.15174055  0.73174751  0.22125752     0.01000
C1413       C  0.17447353  0.71042499  0.22127935    -0.24300
C1414       C  0.16228147  0.56627173  0.22056614    -0.28900
C1415       C  0.13648396  0.55214674  0.22097184     0.06700
C1416       C  0.11455141  0.57328054  0.21601966    -0.27600
H1417       H  0.20869449  0.60056469  0.22226017     0.11400
H1418       H  0.21403841  0.66371017  0.22265918     0.12500
H1419       H  0.07599580  0.61979806  0.20858422     0.11600
H1420       H  0.08140341  0.68292632  0.20855583     0.10800
H1421       H  0.10926700  0.73366875  0.21596037     0.16200
H1422       H  0.19375974  0.72141080  0.22518393     0.12100
H1423       H  0.17928112  0.55012580  0.22443217     0.15000
H1424       H  0.09464939  0.56239714  0.21610595     0.14800
C1425       C  0.09930447  0.83210793  0.85752996    -0.18100
C1426       C  0.10076783  0.82320879  0.87910364    -0.20300
C1427       C  0.09729495  0.84854609  0.89503735     0.20400
C1428       C  0.09196166  0.88307333  0.88934972    -0.03200
C1429       C  0.09047730  0.89208097  0.86751647    -0.06300
C1430       C  0.09435271  0.86648640  0.85154265     0.20700
C1431       C  0.08583859  0.92678518  0.86168701     0.18800
C1432       C  0.08204287  0.95198570  0.87768645    -0.17700
C1433       C  0.08343299  0.94300003  0.89935459    -0.20000
C1434       C  0.08867195  0.90865169  0.90543291     0.20300
C1435       C  0.09121857  0.89949795  0.92719925    -0.33000
C1436       C  0.09708814  0.86506227  0.93291754     0.01000
C1437       C  0.09959180  0.83984705  0.91656306    -0.24300
C1438       C  0.09418791  0.87588004  0.82989728    -0.28900
C1439       C  0.09080753  0.91066468  0.82402225     0.06700
C1440       C  0.08601121  0.93584118  0.83999466    -0.27600
H1441       H  0.10240946  0.81218251  0.84553112     0.11400
H1442       H  0.10492619  0.79651858  0.88333645     0.12500
H1443       H  0.07839588  0.97879107  0.87343956     0.11600
H1444       H  0.08076938  0.96302414  0.91135457     0.10800
H1445       H  0.08924177  0.91913766  0.93952948     0.16200
H1446       H  0.10381103  0.81303557  0.92047586     0.12100
H1447       H  0.09814829  0.85647591  0.81772379     0.15000
H1448       H  0.08324261  0.96276479  0.83555739     0.14800
C1449       C  0.97888151  0.72748973  0.04763769    -0.18100
C1450       C  0.00074996  0.75000947  0.04673275    -0.20300
C1451       C  0.00573438  0.76959834  0.02830647     0.20400
C1452       C  0.98804934  0.76689771  0.01075938    -0.03200
C1453       C  0.96576748  0.74426585  0.01173848    -0.06300
C1454       C  0.96141310  0.72417535  0.03017462     0.20700
C1455       C  0.94840235  0.74088632  0.99403704     0.18800
C1456       C  0.95343517  0.76048386  0.97558636    -0.17700
C1457       C  0.97566216  0.78248568  0.97450185    -0.20000
C1458       C  0.99325031  0.78563451  0.99191464     0.20300
C1459       C  0.01665060  0.80567661  0.99042605    -0.33000
C1460       C  0.03484941  0.80765259  0.00760388     0.01000
C1461       C  0.02882453  0.79028748  0.02670955    -0.24300
C1462       C  0.94017968  0.70035525  0.03064314    -0.28900
C1463       C  0.92287050  0.69620758  0.01299213     0.06700
C1464       C  0.92689914  0.71719860  0.99485244    -0.27600
H1465       H  0.97584815  0.71224288  0.06193733     0.11400
H1466       H  0.01410942  0.75154056  0.06032170     0.12500
H1467       H  0.94045423  0.75828138  0.96179717     0.11600
H1468       H  0.97933536  0.79663742  0.95987470     0.10800
H1469       H  0.02154792  0.81816702  0.97544020     0.16200
H1470       H  0.04316217  0.79062344  0.03968744     0.12100
H1471       H  0.93744597  0.68441034  0.04470341     0.15000
H1472       H  0.91408756  0.71396280  0.98102635     0.14800
C1473       C  0.19258347  0.61355762  0.04039814    -0.18100
C1474       C  0.19124531  0.64957282  0.03804636    -0.20300
C1475       C  0.16649895  0.66627196  0.03664471     0.20400
C1476       C  0.14288626  0.64677701  0.03904009    -0.03200
C1477       C  0.14423066  0.61043930  0.04139488    -0.06300
C1478       C  0.16918755  0.59372185  0.04129117     0.20700
C1479       C  0.12057634  0.59063684  0.04201290     0.18800
C1480       C  0.09586398  0.60754977  0.04190731    -0.17700
C1481       C  0.09452866  0.64357436  0.03964814    -0.20000
C1482       C  0.11789021  0.66319144  0.03744176     0.20300
C1483       C  0.11664436  0.69842438  0.03217515    -0.33000
C1484       C  0.14003491  0.71738986  0.02813400     0.01000
C1485       C  0.16492004  0.70158190  0.03141242    -0.24300
C1486       C  0.17025989  0.55749273  0.03994617    -0.28900
C1487       C  0.14672195  0.53792630  0.03786550     0.06700
C1488       C  0.12199776  0.55435130  0.04059127    -0.27600
H1489       H  0.21190004  0.60106190  0.04042758     0.11400
H1490       H  0.20955223  0.66416595  0.03638904     0.12500
H1491       H  0.07753416  0.59277658  0.04250353     0.11600
H1492       H  0.07518846  0.65589186  0.03863795     0.10800
H1493       H  0.09737120  0.71055176  0.02995706     0.16200
H1494       H  0.18303122  0.71600302  0.02834955     0.12100
H1495       H  0.18942282  0.54484578  0.03823614     0.15000
H1496       H  0.10379448  0.53941513  0.03911193     0.14800
C1497       C  0.12399378  0.92228393  0.14021409    -0.18100
C1498       C  0.11818267  0.91727354  0.11843902    -0.20300
C1499       C  0.13367958  0.89477490  0.10587180     0.20400
C1500       C  0.15583232  0.87816906  0.11538642    -0.03200
C1501       C  0.16189763  0.88352290  0.13729520    -0.06300
C1502       C  0.14555085  0.90510282  0.14988302     0.20700
C1503       C  0.18349736  0.86579689  0.14683451     0.18800
C1504       C  0.19944998  0.84404495  0.13424460    -0.17700
C1505       C  0.19351569  0.83886169  0.11263233    -0.20000
C1506       C  0.17150863  0.85531703  0.10320355     0.20300
C1507       C  0.16485044  0.84881606  0.08183923    -0.33000
C1508       C  0.14274240  0.86491889  0.07190444     0.01000
C1509       C  0.12731664  0.88823570  0.08412289    -0.24300
C1510       C  0.14994939  0.90711989  0.17212004    -0.28900
C1511       C  0.17029341  0.88756373  0.18189801     0.06700
C1512       C  0.18761159  0.86808596  0.16903307    -0.27600
H1513       H  0.11121753  0.93901314  0.14962068     0.11400
H1514       H  0.10120262  0.93047103  0.11153730     0.12500
H1515       H  0.21610509  0.83028048  0.14124691     0.11600
H1516       H  0.20587320  0.82139014  0.10336979     0.10800
H1517       H  0.17731162  0.83102797  0.07289821     0.16200
H1518       H  0.11047931  0.90115335  0.07679949     0.12100
H1519       H  0.13602836  0.92130051  0.18207940     0.15000
H1520       H  0.20272638  0.85215182  0.17655745     0.14800
C1521       C  0.22433167  0.04212786  0.01659212    -0.18100
C1522       C  0.20335380  0.01811347  0.01822755    -0.20300
C1523       C  0.20228755  0.98872529  0.00484676     0.20400
C1524       C  0.22234979  0.98407592  0.98933894    -0.03200
C1525       C  0.24331701  0.00851408  0.98752443    -0.06300
C1526       C  0.24463662  0.03746849  0.00141791     0.20700
C1527       C  0.26338119  0.00333143  0.97216683     0.18800
C1528       C  0.26234025  0.97423164  0.95864781    -0.17700
C1529       C  0.24191090  0.94989858  0.96063563    -0.20000
C1530       C  0.22198090  0.95439203  0.97603713     0.20300
C1531       C  0.20224296  0.92907285  0.97878034    -0.33000
C1532       C  0.18242686  0.93301091  0.99437719     0.01000
C1533       C  0.18217133  0.96329180  0.00711402    -0.24300
C1534       C  0.26662658  0.06044300  0.00029470    -0.28900
C1535       C  0.28715314  0.05477934  0.98529364     0.06700
C1536       C  0.28471821  0.02657048  0.97097047    -0.27600
H1537       H  0.22483946  0.06413810  0.02740188     0.11400
H1538       H  0.18820072  0.02221422  0.03025872     0.12500
H1539       H  0.27767077  0.96989740  0.94678589     0.11600
H1540       H  0.24189216  0.92729562  0.95028594     0.10800
H1541       H  0.20264260  0.90566849  0.96910257     0.16200
H1542       H  0.16722267  0.96612779  0.01945500     0.12100
H1543       H  0.26819463  0.08183950  0.01150835     0.15000
H1544       H  0.30013753  0.02164280  0.95926232     0.14800
C1545       C  0.33835575  0.69826719  0.61021122    -0.18100
C1546       C  0.33758105  0.70454207  0.63228173    -0.20300
C1547       C  0.33969071  0.67703357  0.64685086     0.20400
C1548       C  0.34166436  0.64273296  0.63907423    -0.03200
C1549       C  0.34287951  0.63644881  0.61678019    -0.06300
C1550       C  0.34155664  0.66440325  0.60227457     0.20700
C1551       C  0.34666029  0.60237703  0.60907785     0.18800
C1552       C  0.34793003  0.57475240  0.62360968    -0.17700
C1553       C  0.34635729  0.58091173  0.64563809    -0.20000
C1554       C  0.34370421  0.61484062  0.65356896     0.20300
C1555       C  0.34446124  0.62148350  0.67569208    -0.33000
C1556       C  0.34420676  0.65573814  0.68351655     0.01000
C1557       C  0.34117875  0.68332960  0.66898921    -0.24300
C1558       C  0.34484205  0.65821050  0.58022348    -0.28900
C1559       C  0.35031419  0.62456408  0.57258148     0.06700
C1560       C  0.35040380  0.59669429  0.58709781    -0.27600
H1561       H  0.33725940  0.72005497  0.59935655     0.11400
H1562       H  0.33591611  0.73103552  0.63796360     0.12500
H1563       H  0.35074079  0.54840871  0.61795620     0.11600
H1564       H  0.34797833  0.55919080  0.65650336     0.10800
H1565       H  0.34726000  0.60015775  0.68672153     0.16200
H1566       H  0.34107601  0.70981077  0.67489315     0.12100
H1567       H  0.34497097  0.67986415  0.56921970     0.15000
H1568       H  0.35445971  0.57065563  0.58135715     0.14800
C1569       C  0.46867452  0.48468642  0.77047197    -0.18100
C1570       C  0.44668746  0.50719369  0.77035437    -0.20300
C1571       C  0.44429638  0.53315709  0.75475023     0.20400
C1572       C  0.46414551  0.53585700  0.73887808    -0.03200
C1573       C  0.48627904  0.51303581  0.73892850    -0.06300
C1574       C  0.48873971  0.48755358  0.75495251     0.20700
C1575       C  0.50650180  0.51673207  0.72345876     0.18800
C1576       C  0.50424075  0.54267488  0.70789894    -0.17700
C1577       C  0.48235856  0.56506985  0.70779687    -0.20000
C1578       C  0.46234546  0.56204243  0.72329297     0.20300
C1579       C  0.44099229  0.58543141  0.72373148    -0.33000
C1580       C  0.42124547  0.58369494  0.73969910     0.01000
C1581       C  0.42290263  0.55702802  0.75505019    -0.24300
C1582       C  0.51186822  0.46677278  0.75581220    -0.28900
C1583       C  0.53248712  0.47120938  0.74083531     0.06700
C1584       C  0.52932723  0.49574610  0.72448031    -0.27600
H1585       H  0.47020596  0.46538117  0.78295246     0.11400
H1586       H  0.43174682  0.50462808  0.78270096     0.12500
H1587       H  0.51964326  0.54603070  0.69599453     0.11600
H1588       H  0.48129900  0.58515665  0.69575692     0.10800
H1589       H  0.44019196  0.60570012  0.71178657     0.16200
H1590       H  0.40809170  0.55550239  0.76757161     0.12100
H1591       H  0.51468174  0.44891453  0.76896959     0.15000
H1592       H  0.54558515  0.50021285  0.71345210     0.14800
C1593       C  0.22757309  0.80784179  0.80148960    -0.18100
C1594       C  0.24873611  0.78431072  0.80275280    -0.20300
C1595       C  0.25410416  0.76142550  0.78577971     0.20400
C1596       C  0.23744659  0.76148052  0.76762191    -0.03200
C1597       C  0.21594409  0.78527315  0.76636109    -0.06300
C1598       C  0.21128710  0.80892761  0.78325500     0.20700
C1599       C  0.19980222  0.78632306  0.74788035     0.18800
C1600       C  0.20490378  0.76290747  0.73110056    -0.17700
C1601       C  0.22617030  0.73935740  0.73236380    -0.20000
C1602       C  0.24285164  0.73869674  0.75042363     0.20300
C1603       C  0.26540930  0.71676831  0.75123213    -0.33000
C1604       C  0.28286762  0.71770806  0.76892732     0.01000
C1605       C  0.27647562  0.73955574  0.78634584    -0.24300
C1606       C  0.19117014  0.83415090  0.78128253    -0.28900
C1607       C  0.17547557  0.83600806  0.76271266     0.06700
C1608       C  0.17960482  0.81164883  0.74619482    -0.27600
H1609       H  0.22427286  0.82569655  0.81463305     0.11400
H1610       H  0.26129692  0.78455112  0.81685210     0.12500
H1611       H  0.19273781  0.76324744  0.71678434     0.11600
H1612       H  0.22989327  0.72211084  0.71899148     0.10800
H1613       H  0.27011450  0.70039572  0.73763990     0.16200
H1614       H  0.28956125  0.74057097  0.80013534     0.12100
H1615       H  0.18840504  0.85329663  0.79382364     0.15000
H1616       H  0.16794883  0.81351652  0.73163915     0.14800
C1617       C  0.33497144  0.91609747  0.73563955    -0.18100
C1618       C  0.33286587  0.88003818  0.73730863    -0.20300
C1619       C  0.35520491  0.85888926  0.73397531     0.20400
C1620       C  0.37964589  0.87410283  0.72801555    -0.03200
C1621       C  0.38194503  0.91051269  0.72687772    -0.06300
C1622       C  0.35955066  0.93157906  0.73098434     0.20700
C1623       C  0.40698860  0.92583959  0.72291643     0.18800
C1624       C  0.42901182  0.90463187  0.71854056    -0.17700
C1625       C  0.42655093  0.86850889  0.71904844    -0.20000
C1626       C  0.40216798  0.85306724  0.72436723     0.20300
C1627       C  0.40030551  0.81714529  0.72728769    -0.33000
C1628       C  0.37657712  0.80217922  0.73472108     0.01000
C1629       C  0.35390231  0.82302669  0.73752002    -0.24300
C1630       C  0.36251290  0.96769638  0.73173581    -0.28900
C1631       C  0.38777444  0.98279838  0.72957447     0.06700
C1632       C  0.40984027  0.96194871  0.72465897    -0.27600
H1633       H  0.31760815  0.93194256  0.73881835     0.11400
H1634       H  0.31392035  0.86874844  0.74172479     0.12500
H1635       H  0.44830232  0.91598109  0.71528222     0.11600
H1636       H  0.44398979  0.85267612  0.71612733     0.10800
H1637       H  0.41787554  0.80116010  0.72523879     0.16200
H1638       H  0.33551001  0.81146975  0.74307560     0.12100
H1639       H  0.34561380  0.98386726  0.73587392     0.15000
H1640       H  0.42933309  0.97373909  0.72309245     0.14800
C1641       C  0.44071212  0.57068133  0.13196101    -0.18100
C1642       C  0.44143336  0.57625968  0.10984569    -0.20300
C1643       C  0.43995192  0.61002779  0.10158136     0.20400
C1644       C  0.43915000  0.63852830  0.11584010    -0.03200
C1645       C  0.43878971  0.63291995  0.13817422    -0.06300
C1646       C  0.43877298  0.59878859  0.14623213     0.20700
C1647       C  0.43693328  0.66141535  0.15236794     0.18800
C1648       C  0.43624697  0.69521265  0.14414361    -0.17700
C1649       C  0.43626897  0.70073309  0.12205977    -0.20000
C1650       C  0.43713915  0.67256112  0.10780238     0.20300
C1651       C  0.43429408  0.67773811  0.08573987    -0.33000
C1652       C  0.43327941  0.64938991  0.07151377     0.01000
C1653       C  0.43746062  0.61569186  0.07943122    -0.24300
C1654       C  0.43538099  0.59338042  0.16827772    -0.28900
C1655       C  0.43246057  0.62167618  0.18240467     0.06700
C1656       C  0.43428851  0.65559926  0.17442315    -0.27600
H1657       H  0.44092632  0.54430491  0.13787932     0.11400
H1658       H  0.44215768  0.55406650  0.09918597     0.12500
H1659       H  0.43482241  0.71736881  0.15478612     0.11600
H1660       H  0.43480842  0.72703489  0.11612454     0.10800
H1661       H  0.43126624  0.70379040  0.07972083     0.16200
H1662       H  0.43650006  0.59371425  0.06859400     0.12100
H1663       H  0.43388930  0.56715553  0.17436939     0.15000
H1664       H  0.43160017  0.67743617  0.18517834     0.14800
C1665       C  0.31176788  0.47161996  0.98329738    -0.18100
C1666       C  0.33288298  0.49539880  0.98437846    -0.20300
C1667       C  0.33338097  0.52144502  0.00014368     0.20400
C1668       C  0.31265873  0.52281556  0.01533890    -0.03200
C1669       C  0.29143026  0.49859896  0.01436880    -0.06300
C1670       C  0.29074374  0.47323686  0.99803076     0.20700
C1671       C  0.27027254  0.50084904  0.02912342     0.18800
C1672       C  0.27077906  0.52674389  0.04495519    -0.17700
C1673       C  0.29174038  0.55063881  0.04591258    -0.20000
C1674       C  0.31261422  0.54913245  0.03104796     0.20300
C1675       C  0.33294183  0.57417478  0.03124911    -0.33000
C1676       C  0.35344008  0.57374481  0.01584557     0.01000
C1677       C  0.35370727  0.54676050  0.00055321    -0.24300
C1678       C  0.26835415  0.45135628  0.99598269    -0.28900
C1679       C  0.24677945  0.45436608  0.01017119     0.06700
C1680       C  0.24825213  0.47854000  0.02702645    -0.27600
H1681       H  0.31162157  0.45236743  0.97063886     0.11400
H1682       H  0.34857474  0.49384779  0.97257161     0.12500
H1683       H  0.25464663  0.52899619  0.05633555     0.11600
H1684       H  0.29136897  0.57072616  0.05806832     0.10800
H1685       H  0.33233260  0.59465495  0.04315513     0.16200
H1686       H  0.36916084  0.54614433  0.98850669     0.12100
H1687       H  0.26689301  0.43363042  0.98253714     0.15000
H1688       H  0.23125888  0.48181923  0.03750096     0.14800
C1689       C  0.28774961  0.78728234  0.94817000    -0.18100
C1690       C  0.26192740  0.79865884  0.94391661    -0.20300
C1691       C  0.24019324  0.77685769  0.94793697     0.20400
C1692       C  0.24454215  0.74213764  0.95415446    -0.03200
C1693       C  0.27054411  0.73084886  0.95877466    -0.06300
C1694       C  0.29204009  0.75409816  0.95661329     0.20700
C1695       C  0.27466533  0.69758678  0.96757033     0.18800
C1696       C  0.25313633  0.67461927  0.96944586    -0.17700
C1697       C  0.22730398  0.68576014  0.96474870    -0.20000
C1698       C  0.22273389  0.72006108  0.95826689     0.20300
C1699       C  0.19701182  0.73402294  0.95870594    -0.33000
C1700       C  0.19346976  0.76994344  0.95639185     0.01000
C1701       C  0.21444352  0.79042192  0.94873464    -0.24300
C1702       C  0.31703770  0.74485044  0.96449854    -0.28900
C1703       C  0.32066093  0.71318026  0.97515805     0.06700
C1704       C  0.29977395  0.68896137  0.97579173    -0.27600
H1705       H  0.30416851  0.80519444  0.94615251     0.11400
H1706       H  0.25886586  0.82523046  0.93888119     0.12500
H1707       H  0.25605992  0.64875559  0.97575194     0.11600
H1708       H  0.21078122  0.66836932  0.96769725     0.10800
H1709       H  0.18066118  0.71815198  0.96434115     0.16200
H1710       H  0.21142408  0.81803814  0.94648634     0.12100
H1711       H  0.33321308  0.76341686  0.96365515     0.15000
H1712       H  0.30275438  0.66408843  0.98346918     0.14800
C1713       C  0.42034545  0.60413100  0.85922387    -0.18100
C1714       C  0.42699434  0.60359737  0.88100344    -0.20300
C1715       C  0.40870165  0.61493417  0.89644740     0.20400
C1716       C  0.38285556  0.62493634  0.88984781    -0.03200
C1717       C  0.37612100  0.62539975  0.86787978    -0.06300
C1718       C  0.39525637  0.61594658  0.85246752     0.20700
C1719       C  0.35088471  0.63766497  0.86129657     0.18800
C1720       C  0.33221411  0.64778470  0.87673394    -0.17700
C1721       C  0.33885440  0.64729339  0.89843807    -0.20000
C1722       C  0.36429522  0.63673123  0.90505905     0.20300
C1723       C  0.37207069  0.64019503  0.92643166    -0.33000
C1724       C  0.39838467  0.63311409  0.93289261     0.01000
C1725       C  0.41631811  0.61886405  0.91807445    -0.24300
C1726       C  0.38961623  0.62087663  0.83064917    -0.28900
C1727       C  0.36507934  0.63493375  0.82412510     0.06700
C1728       C  0.34544814  0.64197892  0.83943180    -0.27600
H1729       H  0.43520936  0.59652234  0.84760351     0.11400
H1730       H  0.44682474  0.59559536  0.88569279     0.12500
H1731       H  0.31278735  0.65724869  0.87198185     0.11600
H1732       H  0.32440924  0.65641704  0.90999862     0.10800
H1733       H  0.35813286  0.65103276  0.93787650     0.16200
H1734       H  0.43664251  0.61366100  0.92293031     0.12100
H1735       H  0.40495623  0.61615134  0.81883070     0.15000
H1736       H  0.32682064  0.65364718  0.83442619     0.14800
C1737       C  0.55131224  0.72672755  0.02174498    -0.18100
C1738       C  0.57271604  0.75012416  0.02301756    -0.20300
C1739       C  0.57680899  0.77499852  0.00697433     0.20400
C1740       C  0.55953889  0.77551011  0.98914852    -0.03200
C1741       C  0.53800963  0.75177212  0.98782081    -0.06300
C1742       C  0.53354283  0.72759016  0.00436506     0.20700
C1743       C  0.52035451  0.75321775  0.97031830     0.18800
C1744       C  0.52464726  0.77757367  0.95405491    -0.17700
C1745       C  0.54576910  0.80112158  0.95542769    -0.20000
C1746       C  0.56309589  0.80066821  0.97303512     0.20300
C1747       C  0.58320771  0.82580794  0.97519492    -0.33000
C1748       C  0.60004884  0.82610253  0.99313449     0.01000
C1749       C  0.59710765  0.80022732  0.00880315    -0.24300
C1750       C  0.51077266  0.70593933  0.00368241    -0.28900
C1751       C  0.49234142  0.70850808  0.98671022     0.06700
C1752       C  0.49798186  0.73146395  0.96978780    -0.27600
H1753       H  0.54834856  0.70839966  0.03460501     0.11400
H1754       H  0.58575261  0.74924037  0.03682046     0.12500
H1755       H  0.51125094  0.77898540  0.94048981     0.11600
H1756       H  0.54823642  0.82016816  0.94289524     0.10800
H1757       H  0.58518512  0.84601829  0.96328908     0.16200
H1758       H  0.60974099  0.80081360  0.02286931     0.12100
H1759       H  0.50661649  0.68870767  0.01690726     0.15000
H1760       H  0.48413436  0.73368370  0.95654538     0.14800
C1761       C  0.43390667  0.91030203  0.02144337    -0.18100
C1762       C  0.43667721  0.87424459  0.02110059    -0.20300
C1763       C  0.41434404  0.85277076  0.02342254     0.20400
C1764       C  0.38896020  0.86772813  0.02633775    -0.03200
C1765       C  0.38608315  0.90416026  0.02624509    -0.06300
C1766       C  0.40871342  0.92546485  0.02384509     0.20700
C1767       C  0.36051661  0.91920652  0.02775194     0.18800
C1768       C  0.33820419  0.89766344  0.03018793    -0.17700
C1769       C  0.34112258  0.86153844  0.03074741    -0.20000
C1770       C  0.36636045  0.84630365  0.02856117     0.20300
C1771       C  0.36927915  0.81008437  0.02758637    -0.33000
C1772       C  0.39436057  0.79515196  0.02365591     0.01000
C1773       C  0.41683955  0.81664644  0.02200596    -0.24300
C1774       C  0.40567231  0.96152376  0.02298403    -0.28900
C1775       C  0.38024807  0.97657448  0.02348077     0.06700
C1776       C  0.35770573  0.95538524  0.02598060    -0.27600
H1777       H  0.45141973  0.92634394  0.01938881     0.11400
H1778       H  0.45626970  0.86314269  0.01877423     0.12500
H1779       H  0.31844888  0.90873834  0.03140206     0.11600
H1780       H  0.32355087  0.84548011  0.03238240     0.10800
H1781       H  0.35179972  0.79365545  0.02844658     0.16200
H1782       H  0.43617541  0.80525124  0.01886510     0.12100
H1783       H  0.42298134  0.97780266  0.02041760     0.15000
H1784       H  0.33805899  0.96700626  0.02600735     0.14800
C1785       C  0.57007430  0.85256000  0.35783071    -0.18100
C1786       C  0.56838770  0.84720063  0.37990709    -0.20300
C1787       C  0.57961414  0.87114420  0.39430952     0.20400
C1788       C  0.59280442  0.90068862  0.38646348    -0.03200
C1789       C  0.59472500  0.90589407  0.36418069    -0.06300
C1790       C  0.58316393  0.88184465  0.34974944     0.20700
C1791       C  0.60834288  0.93507165  0.35637332     0.18800
C1792       C  0.62008718  0.95865310  0.37073790    -0.17700
C1793       C  0.61818805  0.95350038  0.39279172    -0.20000
C1794       C  0.60451479  0.92468690  0.40086138     0.20300
C1795       C  0.60317689  0.91874889  0.42300631    -0.33000
C1796       C  0.59072612  0.88880274  0.43080655     0.01000
C1797       C  0.57869690  0.86542525  0.41639509    -0.24300
C1798       C  0.58484725  0.88756820  0.32755562    -0.28900
C1799       C  0.59805688  0.91700798  0.31967245     0.06700
C1800       C  0.60996092  0.94033786  0.33432907    -0.27600
H1801       H  0.56118642  0.83373269  0.34707405     0.11400
H1802       H  0.55835069  0.82423319  0.38572626     0.12500
H1803       H  0.63074196  0.98113875  0.36490652     0.11600
H1804       H  0.62752143  0.97198024  0.40353668     0.10800
H1805       H  0.61327138  0.93610467  0.43403943     0.16200
H1806       H  0.56965941  0.84186195  0.42242283     0.12100
H1807       H  0.57576633  0.86933849  0.31650649     0.15000
H1808       H  0.62047006  0.96304780  0.32864366     0.14800
C1809       C  0.74220010  0.01318587  0.45132999    -0.18100
C1810       C  0.72041794  0.99071907  0.45321959    -0.20300
C1811       C  0.70690188  0.98754172  0.47272489     0.20400
C1812       C  0.71490398  0.00819365  0.49031203    -0.03200
C1813       C  0.73679660  0.03119480  0.48833496    -0.06300
C1814       C  0.75083795  0.03307152  0.46888204     0.20700
C1815       C  0.74534183  0.05111276  0.50607470     0.18800
C1816       C  0.73145147  0.04844425  0.52545860    -0.17700
C1817       C  0.70999317  0.02540632  0.52749048    -0.20000
C1818       C  0.70180319  0.00475593  0.51012470     0.20300
C1819       C  0.68151891  0.97977047  0.51243092    -0.33000
C1820       C  0.67388881  0.95857086  0.49509836     0.01000
C1821       C  0.68631475  0.96306583  0.47519809    -0.24300
C1822       C  0.77401472  0.05342654  0.46760306    -0.28900
C1823       C  0.78344575  0.07220341  0.48546794     0.06700
C1824       C  0.76838063  0.07190625  0.50443588    -0.27600
H1825       H  0.75268254  0.01441102  0.43624025     0.11400
H1826       H  0.71455542  0.97515925  0.43953991     0.12500
H1827       H  0.73764516  0.06350043  0.53925616     0.11600
H1828       H  0.70011816  0.02325378  0.54280107     0.10800
H1829       H  0.67229939  0.97589969  0.52788985     0.16200
H1830       H  0.68087373  0.94624589  0.46195952     0.12100
H1831       H  0.78541063  0.05348969  0.45291064     0.15000
H1832       H  0.77559825  0.08587742  0.51835800     0.14800
C1833       C  0.74822670  0.69882103  0.47808561    -0.18100
C1834       C  0.72296673  0.71213431  0.47365295    -0.20300
C1835       C  0.72006406  0.74635982  0.46647422     0.20400
C1836       C  0.74282020  0.76688028  0.46269745    -0.03200
C1837       C  0.76825879  0.75335896  0.46697732    -0.06300
C1838       C  0.77092537  0.71946404  0.47522370     0.20700
C1839       C  0.79088435  0.77447884  0.46417985     0.18800
C1840       C  0.78804855  0.80843640  0.45653925    -0.17700
C1841       C  0.76278765  0.82203988  0.45263948    -0.20000
C1842       C  0.74008444  0.80174438  0.45616918     0.20300
C1843       C  0.71476001  0.81660097  0.45525310    -0.33000
C1844       C  0.69236157  0.79710798  0.46105499     0.01000
C1845       C  0.69484708  0.76143228  0.46499035    -0.24300
C1846       C  0.79610567  0.70742330  0.48132923    -0.28900
C1847       C  0.81855061  0.72883589  0.47916310     0.06700
C1848       C  0.81586326  0.76190725  0.47002334    -0.27600
H1849       H  0.74994551  0.67273898  0.48433758     0.11400
H1850       H  0.70564615  0.69615775  0.47669633     0.12500
H1851       H  0.80530906  0.82487674  0.45430870     0.11600
H1852       H  0.76096883  0.84880884  0.44761582     0.10800
H1853       H  0.71270933  0.84416785  0.45223496     0.16200
H1854       H  0.67754085  0.74650437  0.46971473     0.12100
H1855       H  0.79812678  0.68183280  0.48827821     0.15000
H1856       H  0.83306486  0.77868018  0.46842603     0.14800
C1857       C  0.44432605  0.78199400  0.48596204    -0.18100
C1858       C  0.46493024  0.80653075  0.48468086    -0.20300
C1859       C  0.48747872  0.80404056  0.49793009     0.20400
C1860       C  0.48888625  0.77688979  0.51297318    -0.03200
C1861       C  0.46819398  0.75181881  0.51407163    -0.06300
C1862       C  0.44587422  0.75418945  0.50038475     0.20700
C1863       C  0.47027741  0.72380850  0.52840280     0.18800
C1864       C  0.49268549  0.72144202  0.54180232    -0.17700
C1865       C  0.51305305  0.74621797  0.54077109    -0.20000
C1866       C  0.51149593  0.77388860  0.52629466     0.20300
C1867       C  0.53276574  0.79744674  0.52413535    -0.33000
C1868       C  0.53212202  0.82362585  0.50853179     0.01000
C1869       C  0.50920188  0.82703674  0.49566646    -0.24300
C1870       C  0.42592866  0.72827069  0.50093593    -0.28900
C1871       C  0.42808997  0.69965681  0.51487111     0.06700
C1872       C  0.45032837  0.69813579  0.52873758    -0.27600
H1873       H  0.42738595  0.78439531  0.47532829     0.11400
H1874       H  0.46341456  0.82717507  0.47304123     0.12500
H1875       H  0.49466169  0.70008318  0.55289909     0.11600
H1876       H  0.53030496  0.74333345  0.55103407     0.10800
H1877       H  0.55074111  0.79378676  0.53349061     0.16200
H1878       H  0.50894642  0.84631440  0.48309718     0.12100
H1879       H  0.40914168  0.72988877  0.49008204     0.15000
H1880       H  0.45250193  0.67644928  0.53957469     0.14800
C1881       C  0.69158193  0.63597881  0.52319702    -0.18100
C1882       C  0.68933403  0.67212099  0.52347476    -0.20300
C1883       C  0.66423283  0.68788622  0.52481870     0.20400
C1884       C  0.64126518  0.66706415  0.52696754    -0.03200
C1885       C  0.64353941  0.63058750  0.52674349    -0.06300
C1886       C  0.66875913  0.61505525  0.52428102     0.20700
C1887       C  0.62044265  0.60975042  0.52762360     0.18800
C1888       C  0.59543031  0.62553358  0.52978735    -0.17700
C1889       C  0.59316362  0.66168789  0.52995820    -0.20000
C1890       C  0.61588404  0.68260912  0.52799115     0.20300
C1891       C  0.61352714  0.71860632  0.52565398    -0.33000
C1892       C  0.63618591  0.73923193  0.52208628     0.01000
C1893       C  0.66156119  0.72390537  0.52265802    -0.24300
C1894       C  0.67056607  0.57906452  0.52151319    -0.28900
C1895       C  0.64746079  0.55839821  0.52075082     0.06700
C1896       C  0.62258677  0.57371960  0.52486638    -0.27600
H1897       H  0.71109782  0.62440964  0.52136889     0.11400
H1898       H  0.70715372  0.68772519  0.52186500     0.12500
H1899       H  0.57751920  0.60993015  0.53053944     0.11600
H1900       H  0.57354887  0.67326906  0.53086553     0.10800
H1901       H  0.59390870  0.73031964  0.52536336     0.16200
H1902       H  0.67909444  0.73958683  0.51975444     0.12100
H1903       H  0.68986949  0.56744783  0.51857764     0.15000
H1904       H  0.60467664  0.55805349  0.52428117     0.14800
C1905       C  0.66064856  0.82589920  0.89186021    -0.18100
C1906       C  0.65874696  0.82095363  0.86972352    -0.20300
C1907       C  0.66989810  0.84511349  0.85555874     0.20400
C1908       C  0.68316273  0.87448235  0.86371565    -0.03200
C1909       C  0.68518730  0.87940327  0.88607392    -0.06300
C1910       C  0.67376826  0.85507468  0.90025250     0.20700
C1911       C  0.69802454  0.90914226  0.89420889     0.18800
C1912       C  0.70896778  0.93343563  0.88005457    -0.17700
C1913       C  0.70705789  0.92847294  0.85793467    -0.20000
C1914       C  0.69414087  0.89914399  0.84955472     0.20300
C1915       C  0.69205402  0.89404761  0.82730738    -0.33000
C1916       C  0.67920330  0.86449276  0.81901667     0.01000
C1917       C  0.66800437  0.84034880  0.83338438    -0.24300
C1918       C  0.67461079  0.86121452  0.92247086    -0.28900
C1919       C  0.68635829  0.89164552  0.93051823     0.06700
C1920       C  0.69864197  0.91490784  0.91631950    -0.27600
H1921       H  0.65161953  0.80706534  0.90241421     0.11400
H1922       H  0.64842677  0.79825974  0.86366912     0.12500
H1923       H  0.71877716  0.95651599  0.88610115     0.11600
H1924       H  0.71557789  0.94769483  0.84737415     0.10800
H1925       H  0.70066666  0.91284674  0.81650049     0.16200
H1926       H  0.65776861  0.81756849  0.82734206     0.12100
H1927       H  0.66450834  0.84374345  0.93330261     0.15000
H1928       H  0.70735993  0.93867303  0.92250155     0.14800
C1929       C  0.83301660  0.77852441  0.77252923    -0.18100
C1930       C  0.81139822  0.80142101  0.77348223    -0.20300
C1931       C  0.79315345  0.80347166  0.75650037     0.20400
C1932       C  0.79737077  0.78319893  0.73798195    -0.03200
C1933       C  0.81911063  0.75974879  0.73711615    -0.06300
C1934       C  0.83674947  0.75698684  0.75464665     0.20700
C1935       C  0.82238805  0.73787993  0.71919691     0.18800
C1936       C  0.80467856  0.74081590  0.70186716    -0.17700
C1937       C  0.78321424  0.76404832  0.70270261    -0.20000
C1938       C  0.77901061  0.78483735  0.72087941     0.20300
C1939       C  0.75594789  0.80548433  0.72285792    -0.33000
C1940       C  0.75085711  0.82414459  0.74181475     0.01000
C1941       C  0.76992597  0.82370200  0.75830060    -0.24300
C1942       C  0.85696477  0.73162707  0.75448212    -0.28900
C1943       C  0.85944002  0.70827965  0.73723944     0.06700
C1944       C  0.84248000  0.71238083  0.71936253    -0.27600
H1945       H  0.84636770  0.77689166  0.78611042     0.11400
H1946       H  0.80854077  0.81686774  0.78779424     0.12500
H1947       H  0.80696797  0.72440051  0.68789831     0.11600
H1948       H  0.76942002  0.76496888  0.68938068     0.10800
H1949       H  0.74093034  0.80482925  0.71038668     0.16200
H1950       H  0.76573514  0.83720802  0.77314852     0.12100
H1951       H  0.86976176  0.72878133  0.76833555     0.15000
H1952       H  0.84426481  0.69484898  0.70585551     0.14800
C1953       C  0.69290724  0.62203556  0.70925837    -0.18100
C1954       C  0.69502258  0.65815127  0.70829287    -0.20300
C1955       C  0.67208559  0.67881479  0.70711852     0.20400
C1956       C  0.64685866  0.66295761  0.70545108    -0.03200
C1957       C  0.64471172  0.62650368  0.70654549    -0.06300
C1958       C  0.66782317  0.60605735  0.70911720     0.20700
C1959       C  0.61935218  0.61080195  0.70685346     0.18800
C1960       C  0.59650155  0.63136257  0.70440299    -0.17700
C1961       C  0.59864139  0.66748527  0.70320085    -0.20000
C1962       C  0.62365295  0.68357454  0.70450378     0.20300
C1963       C  0.62571577  0.71970640  0.70683998    -0.33000
C1964       C  0.65059602  0.73519825  0.71082599     0.01000
C1965       C  0.67379663  0.71487798  0.70951832    -0.24300
C1966       C  0.66535286  0.57048324  0.71331558    -0.28900
C1967       C  0.64007674  0.55547792  0.71577484     0.06700
C1968       C  0.61721026  0.57532791  0.71139089    -0.27600
H1969       H  0.71083231  0.60672033  0.71114429     0.11400
H1970       H  0.71453926  0.66997720  0.70947095     0.12500
H1971       H  0.57689919  0.61964143  0.70442295     0.11600
H1972       H  0.58064669  0.68290290  0.70233796     0.10800
H1973       H  0.60774114  0.73517658  0.70782752     0.16200
H1974       H  0.69307309  0.72674000  0.71231524     0.12100
H1975       H  0.68301031  0.55533906  0.71679958     0.15000
H1976       H  0.59766821  0.56373148  0.71311328     0.14800
C1977       C  0.51998357  0.80939831  0.79692327    -0.18100
C1978       C  0.49389421  0.79688010  0.79732548    -0.20300
C1979       C  0.48819483  0.76318250  0.79010539     0.20400
C1980       C  0.50919189  0.74100181  0.78389163    -0.03200
C1981       C  0.53555235  0.75343574  0.78382163    -0.06300
C1982       C  0.54074215  0.78825344  0.78951843     0.20700
C1983       C  0.55635147  0.73194005  0.77635462     0.18800
C1984       C  0.55083242  0.69766186  0.77018706    -0.17700
C1985       C  0.52464116  0.68547489  0.77002549    -0.20000
C1986       C  0.50365863  0.70732117  0.77617540     0.20300
C1987       C  0.47718920  0.69701892  0.77327321    -0.33000
C1988       C  0.45623414  0.71998289  0.77791873     0.01000
C1989       C  0.46180144  0.75224050  0.78744128    -0.24300
C1990       C  0.56606863  0.80209474  0.78596649    -0.28900
C1991       C  0.58614965  0.78149541  0.77691618     0.06700
C1992       C  0.58177447  0.74599676  0.77340800    -0.27600
H1993       H  0.52374434  0.83608671  0.80152302     0.11400
H1994       H  0.47802099  0.81412218  0.80227940     0.12500
H1995       H  0.56658469  0.68083321  0.76448907     0.11600
H1996       H  0.52068507  0.65944415  0.76423980     0.10800
H1997       H  0.47291368  0.67186736  0.76623412     0.16200
H1998       H  0.44568372  0.76998364  0.79107971     0.12100
H1999       H  0.56963351  0.82951667  0.78869450     0.15000
H2000       H  0.59728927  0.73028793  0.76621752     0.14800
C2001       C  0.69109167  0.88294490  0.60702936    -0.18100
C2002       C  0.69617335  0.88481730  0.62897250    -0.20300
C2003       C  0.67615470  0.89542031  0.64311743     0.20400
C2004       C  0.65118671  0.90606148  0.63489335    -0.03200
C2005       C  0.64600116  0.90399261  0.61270702    -0.06300
C2006       C  0.66588114  0.89153910  0.59889108     0.20700
C2007       C  0.62055122  0.91261227  0.60451321     0.18800
C2008       C  0.60097708  0.92486389  0.61861222    -0.17700
C2009       C  0.60605769  0.92675141  0.64062930    -0.20000
C2010       C  0.63083321  0.91650463  0.64894492     0.20300
C2011       C  0.63495226  0.91391717  0.67107261    -0.33000
C2012       C  0.65897662  0.90064073  0.67927365     0.01000
C2013       C  0.67995004  0.89298221  0.66533106    -0.24300
C2014       C  0.65992826  0.88635904  0.57730268    -0.28900
C2015       C  0.63424506  0.89291165  0.56907581     0.06700
C2016       C  0.61485290  0.90733281  0.58260549    -0.27600
H2017       H  0.70661878  0.87360178  0.59649153     0.11400
H2018       H  0.71545422  0.87676035  0.63494435     0.12500
H2019       H  0.58143235  0.93188886  0.61270549     0.11600
H2020       H  0.59026500  0.93504773  0.65123843     0.10800
H2021       H  0.61865233  0.91934871  0.68191672     0.16200
H2022       H  0.69824057  0.88213356  0.67165592     0.12100
H2023       H  0.67532064  0.87620020  0.56689392     0.15000
H2024       H  0.59516665  0.91283373  0.57637491     0.14800
C2025       C  0.50441592  0.95984062  0.76525096    -0.18100
C2026       C  0.52627420  0.93757167  0.76428536    -0.20300
C2027       C  0.55195920  0.95086090  0.76124523     0.20400
C2028       C  0.55578092  0.98696732  0.75934014    -0.03200
C2029       C  0.53355312  0.00956544  0.76016356    -0.06300
C2030       C  0.50785925  0.99578442  0.76315559     0.20700
C2031       C  0.53695315  0.04574975  0.75774666     0.18800
C2032       C  0.56282317  0.05884410  0.75486483    -0.17700
C2033       C  0.58490730  0.03642498  0.75413999    -0.20000
C2034       C  0.58166168  0.00034398  0.75620065     0.20300
C2035       C  0.60353400  0.97728129  0.75448468    -0.33000
C2036       C  0.59947895  0.94111842  0.75551280     0.01000
C2037       C  0.57370292  0.92842431  0.75939611    -0.24300
C2038       C  0.48591574  0.01803770  0.76397316    -0.28900
C2039       C  0.48878752  0.05420481  0.76166220     0.06700
C2040       C  0.51444878  0.06796211  0.75826890    -0.27600
H2041       H  0.48475605  0.94890710  0.76750979     0.11400
H2042       H  0.52305322  0.90987808  0.76573142     0.12500
H2043       H  0.56599085  0.08647368  0.75306087     0.11600
H2044       H  0.60453357  0.04732351  0.75170573     0.10800
H2045       H  0.62327389  0.98726142  0.75125439     0.16200
H2046       H  0.57043205  0.90063879  0.76029425     0.12100
H2047       H  0.46627631  0.00696382  0.76621833     0.15000
H2048       H  0.51692651  0.09571606  0.75645585     0.14800
C2049       C  0.08774541  0.46190619  0.37194171    -0.18100
C2050       C  0.08894973  0.45440248  0.39379914    -0.20300
C2051       C  0.08864072  0.41990529  0.40085963     0.20400
C2052       C  0.08624237  0.39278830  0.38565304    -0.03200
C2053       C  0.08500687  0.40036698  0.36356373    -0.06300
C2054       C  0.08624173  0.43504867  0.35673806     0.20700
C2055       C  0.08350696  0.37320656  0.34831429     0.18800
C2056       C  0.08221671  0.33877419  0.35541559    -0.17700
C2057       C  0.08345508  0.33125957  0.37727623    -0.20000
C2058       C  0.08598917  0.35803636  0.39244749     0.20300
C2059       C  0.08913866  0.35056789  0.41421625    -0.33000
C2060       C  0.09259674  0.37728209  0.42947410     0.01000
C2061       C  0.09156046  0.41199966  0.42273000    -0.24300
C2062       C  0.08706370  0.44227401  0.33483218    -0.28900
C2063       C  0.08720562  0.41535634  0.31942228     0.06700
C2064       C  0.08446121  0.38086550  0.32630089    -0.27600
H2065       H  0.08860706  0.48874261  0.36690061     0.11400
H2066       H  0.09067374  0.47557531  0.40515617     0.12500
H2067       H  0.08089245  0.31758047  0.34403979     0.11600
H2068       H  0.08302971  0.30439666  0.38229621     0.10800
H2069       H  0.08945377  0.32369130  0.41926080     0.16200
H2070       H  0.09416304  0.43270325  0.43431917     0.12100
H2071       H  0.08862331  0.46908730  0.32981934     0.15000
H2072       H  0.08440910  0.35998112  0.31465419     0.14800
C2073       C  0.00663260  0.25134082  0.54131315    -0.18100
C2074       C  0.98562263  0.22753546  0.54228237    -0.20300
C2075       C  0.96525877  0.22798326  0.52686803     0.20400
C2076       C  0.96574756  0.25317511  0.51059403    -0.03200
C2077       C  0.98703815  0.27721151  0.50958214    -0.06300
C2078       C  0.00770102  0.27604777  0.52491174     0.20700
C2079       C  0.98826417  0.30132361  0.49268670     0.18800
C2080       C  0.96770192  0.30200509  0.47744370    -0.17700
C2081       C  0.94648490  0.27847188  0.47859005    -0.20000
C2082       C  0.94548890  0.25359342  0.49490401     0.20300
C2083       C  0.92512446  0.22845583  0.49538082    -0.33000
C2084       C  0.92494870  0.20250015  0.51117396     0.01000
C2085       C  0.94492013  0.20297966  0.52707965    -0.24300
C2086       C  0.02974838  0.29830184  0.52290595    -0.28900
C2087       C  0.03170637  0.32122047  0.50555831     0.06700
C2088       C  0.01069369  0.32299166  0.49069889    -0.27600
H2089       H  0.02235976  0.24994706  0.55315678     0.11400
H2090       H  0.98555676  0.20834910  0.55489321     0.12500
H2091       H  0.96828044  0.32034337  0.46437448     0.11600
H2092       H  0.93113134  0.27925110  0.46641423     0.10800
H2093       H  0.91002613  0.22832068  0.48297968     0.16200
H2094       H  0.94506883  0.18329155  0.53940368     0.12100
H2095       H  0.04635655  0.29594913  0.53391074     0.15000
H2096       H  0.01256342  0.33980140  0.47692831     0.14800
C2097       C  0.09025889  0.15673834  0.53539510    -0.18100
C2098       C  0.09288401  0.12065429  0.53625197    -0.20300
C2099       C  0.11816012  0.10523953  0.53539789     0.20400
C2100       C  0.14108923  0.12639776  0.53497356    -0.03200
C2101       C  0.13845257  0.16275289  0.53429925    -0.06300
C2102       C  0.11288352  0.17790865  0.53378339     0.20700
C2103       C  0.16136150  0.18375376  0.53264264     0.18800
C2104       C  0.18667358  0.16845020  0.53264438    -0.17700
C2105       C  0.18927200  0.13241534  0.53312414    -0.20000
C2106       C  0.16659770  0.11122515  0.53371382     0.20300
C2107       C  0.16891598  0.07525727  0.53150452    -0.33000
C2108       C  0.14608213  0.05429840  0.53025114     0.01000
C2109       C  0.12084130  0.06919151  0.53336448    -0.24300
C2110       C  0.11039725  0.21362559  0.53018013    -0.28900
C2111       C  0.13317028  0.23419611  0.52709592     0.06700
C2112       C  0.15855335  0.21942236  0.52946512    -0.27600
H2113       H  0.07050600  0.16800358  0.53518033     0.11400
H2114       H  0.07510211  0.10476658  0.53667071     0.12500
H2115       H  0.20442222  0.18428212  0.53138109     0.11600
H2116       H  0.20897684  0.12110043  0.53222391     0.10800
H2117       H  0.18844098  0.06380473  0.52934788     0.16200
H2118       H  0.10315740  0.05313773  0.53236479     0.12100
H2119       H  0.09077665  0.22503139  0.52853210     0.15000
H2120       H  0.17618717  0.23512122  0.52700338     0.14800
C2121       C  0.23708328  0.52108057  0.45674782    -0.18100
C2122       C  0.21489471  0.49912878  0.45820740    -0.20300
C2123       C  0.20558622  0.48801203  0.47818638     0.20400
C2124       C  0.21844281  0.50005037  0.49692658    -0.03200
C2125       C  0.24053884  0.52291303  0.49546258    -0.06300
C2126       C  0.25023237  0.53287004  0.47524642     0.20700
C2127       C  0.25351285  0.53474876  0.51418397     0.18800
C2128       C  0.24417238  0.52369171  0.53418582    -0.17700
C2129       C  0.22270573  0.50052875  0.53561064    -0.20000
C2130       C  0.20985690  0.48827792  0.51708331     0.20300
C2131       C  0.18925807  0.46354326  0.51829887    -0.33000
C2132       C  0.17657940  0.45096070  0.49967956     0.01000
C2133       C  0.18441135  0.46403082  0.47970255    -0.24300
C2134       C  0.27344893  0.55332018  0.47385821    -0.28900
C2135       C  0.28676676  0.56492052  0.49241296     0.06700
C2136       C  0.27621736  0.55620161  0.51254339    -0.27600
H2137       H  0.24417304  0.52851215  0.44108141     0.11400
H2138       H  0.20538899  0.49017035  0.44363840     0.12500
H2139       H  0.25386895  0.53234037  0.54874507     0.11600
H2140       H  0.21635654  0.49184228  0.55123821     0.10800
H2141       H  0.18347822  0.45332753  0.53373516     0.16200
H2142       H  0.17513295  0.45395318  0.46530305     0.12100
H2143       H  0.28163515  0.55947670  0.45831158     0.15000
H2144       H  0.28670182  0.56422406  0.52690000     0.14800
C2145       C  0.14482596  0.43958039  0.88224978    -0.18100
C2146       C  0.14716798  0.43708289  0.86006046    -0.20300
C2147       C  0.16779444  0.41763926  0.85090402     0.20400
C2148       C  0.18659427  0.40107111  0.86427318    -0.03200
C2149       C  0.18419735  0.40355851  0.88673592    -0.06300
C2150       C  0.16308005  0.42269064  0.89565573     0.20700
C2151       C  0.20256241  0.38641387  0.90023249     0.18800
C2152       C  0.22345108  0.36741845  0.89098836    -0.17700
C2153       C  0.22565070  0.36459241  0.86870020    -0.20000
C2154       C  0.20712212  0.38092728  0.85521703     0.20300
C2155       C  0.20780825  0.37596785  0.83294117    -0.33000
C2156       C  0.18840425  0.39119716  0.81970589     0.01000
C2157       C  0.16902569  0.41288372  0.82868526    -0.24300
C2158       C  0.16049613  0.42473134  0.91784696    -0.28900
C2159       C  0.17874385  0.40815911  0.93156491     0.06700
C2160       C  0.19968113  0.38870067  0.92265014    -0.27600
H2161       H  0.12854857  0.45447670  0.88894113     0.11400
H2162       H  0.13254777  0.44985578  0.85005741     0.12500
H2163       H  0.23787065  0.35429530  0.90099946     0.11600
H2164       H  0.24160048  0.34911386  0.86200828     0.10800
H2165       H  0.22236540  0.35851905  0.82599479     0.16200
H2166       H  0.15364148  0.42374108  0.81852333     0.12100
H2167       H  0.14420382  0.43968106  0.92451585     0.15000
H2168       H  0.21400769  0.37623592  0.93307180     0.14800
C2169       C  0.08069477  0.53670918  0.73647659    -0.18100
C2170       C  0.05878624  0.55930890  0.73817318    -0.20300
C2171       C  0.03754408  0.55186270  0.75202770     0.20400
C2172       C  0.03887890  0.52150675  0.76458330    -0.03200
C2173       C  0.06084789  0.49848903  0.76270464    -0.06300
C2174       C  0.08185813  0.50594483  0.74848158     0.20700
C2175       C  0.06132927  0.46745591  0.77460797     0.18800
C2176       C  0.04043646  0.46015644  0.78872618    -0.17700
C2177       C  0.01901351  0.48305154  0.79079666    -0.20000
C2178       C  0.01789482  0.51354017  0.77862071     0.20300
C2179       C  0.99566010  0.53545089  0.77980973    -0.33000
C2180       C  0.99325665  0.56513741  0.76674677     0.01000
C2181       C  0.01469434  0.57348278  0.75309751    -0.24300
C2182       C  0.10305679  0.48194585  0.74603706    -0.28900
C2183       C  0.10304687  0.45032336  0.75735154     0.06700
C2184       C  0.08219732  0.44365542  0.77172918    -0.27600
H2185       H  0.09654130  0.54302357  0.72544851     0.11400
H2186       H  0.05831643  0.58244520  0.72840703     0.12500
H2187       H  0.04049793  0.43647484  0.79800340     0.11600
H2188       H  0.00301262  0.47653018  0.80164319     0.10800
H2189       H  0.97959829  0.52835892  0.79046613     0.16200
H2190       H  0.01326956  0.59602584  0.74286883     0.12100
H2191       H  0.11872912  0.48699470  0.73459626     0.15000
H2192       H  0.08189532  0.41925171  0.78030705     0.14800
C2193       C  0.28604518  0.27019470  0.70668921    -0.18100
C2194       C  0.30709166  0.24638549  0.70537620    -0.20300
C2195       C  0.32315736  0.23947830  0.72327821     0.20400
C2196       C  0.31840344  0.25748282  0.74254590    -0.03200
C2197       C  0.29697380  0.28138309  0.74391897    -0.06300
C2198       C  0.28051124  0.28752749  0.72595859     0.20700
C2199       C  0.29130805  0.29789667  0.76352417     0.18800
C2200       C  0.30762183  0.29139404  0.78133863    -0.17700
C2201       C  0.32898540  0.26811829  0.77990869    -0.20000
C2202       C  0.33437821  0.25061933  0.76067742     0.20300
C2203       C  0.35471012  0.22541139  0.75951117    -0.33000
C2204       C  0.35882350  0.20621501  0.74060136     0.01000
C2205       C  0.34318324  0.21395435  0.72246404    -0.24300
C2206       C  0.25802520  0.30934960  0.72791001    -0.28900
C2207       C  0.25146882  0.32443302  0.74773835     0.06700
C2208       C  0.26863815  0.31914209  0.76529434    -0.27600
H2209       H  0.27368099  0.27442720  0.69273235     0.11400
H2210       H  0.31048671  0.23285494  0.69042152     0.12500
H2211       H  0.30354769  0.30384252  0.79653546     0.11600
H2212       H  0.34092904  0.26320458  0.79401579     0.10800
H2213       H  0.36628419  0.21934651  0.77365687     0.16200
H2214       H  0.34610971  0.19933388  0.70782147     0.12100
H2215       H  0.24452543  0.31235942  0.71450376     0.15000
H2216       H  0.26343047  0.33007020  0.78072545     0.14800
C2217       C  0.19163466  0.12009718  0.73016230    -0.18100
C2218       C  0.19388666  0.15619990  0.73031396    -0.20300
C2219       C  0.17135563  0.17705439  0.72711907     0.20400
C2220       C  0.14652668  0.16151146  0.72272676    -0.03200
C2221       C  0.14424659  0.12503302  0.72258297    -0.06300
C2222       C  0.16681743  0.10431885  0.72682059     0.20700
C2223       C  0.11909974  0.10940871  0.71964198     0.18800
C2224       C  0.09678340  0.13029721  0.71557251    -0.17700
C2225       C  0.09905950  0.16649106  0.71568530    -0.20000
C2226       C  0.12368728  0.18235875  0.71986147     0.20300
C2227       C  0.12556552  0.21846811  0.72266639    -0.33000
C2228       C  0.14993184  0.23378865  0.72860199     0.01000
C2229       C  0.17294543  0.21303942  0.72968406    -0.24300
C2230       C  0.16387098  0.06842655  0.72919359    -0.28900
C2231       C  0.13852700  0.05310758  0.72812864     0.06700
C2232       C  0.11641199  0.07346845  0.72236643    -0.27600
H2233       H  0.20912935  0.10455046  0.73344119     0.11400
H2234       H  0.21308748  0.16781293  0.73370184     0.12500
H2235       H  0.07736684  0.11868542  0.71313664     0.11600
H2236       H  0.08135671  0.18206690  0.71332608     0.10800
H2237       H  0.10772218  0.23419870  0.72177872     0.16200
H2238       H  0.19190191  0.22459252  0.73398653     0.12100
H2239       H  0.18095717  0.05295834  0.73380346     0.15000
H2240       H  0.09683513  0.06170964  0.72142974     0.14800
C2241       C  0.09276718  0.38985102  0.64248339    -0.18100
C2242       C  0.08831942  0.39102842  0.62040225    -0.20300
C2243       C  0.10982030  0.39183345  0.60616149     0.20400
C2244       C  0.13610601  0.39255168  0.61442353    -0.03200
C2245       C  0.14060563  0.39132775  0.63672505    -0.06300
C2246       C  0.11879655  0.38940782  0.65072489     0.20700
C2247       C  0.16689902  0.39077853  0.64495595     0.18800
C2248       C  0.18839904  0.39224068  0.63073068    -0.17700
C2249       C  0.18395652  0.39334059  0.60864769    -0.20000
C2250       C  0.15793466  0.39303729  0.60039167     0.20300
C2251       C  0.15342068  0.39145955  0.57833973    -0.33000
C2252       C  0.12744504  0.38883785  0.56997707     0.01000
C2253       C  0.10560464  0.39017612  0.58387708    -0.24300
C2254       C  0.12336021  0.38585547  0.67268049    -0.28900
C2255       C  0.14940959  0.38410761  0.68101674     0.06700
C2256       C  0.17116959  0.38756350  0.66715507    -0.27600
H2257       H  0.07581517  0.38852413  0.65311734     0.11400
H2258       H  0.06805657  0.39052271  0.61445308     0.12500
H2259       H  0.20867080  0.39184138  0.63666075     0.11600
H2260       H  0.20091675  0.39369117  0.59798988     0.10800
H2261       H  0.17029506  0.39035523  0.56756895     0.16200
H2262       H  0.08562262  0.38764480  0.57749257     0.12100
H2263       H  0.10649078  0.38361944  0.68337230     0.15000
H2264       H  0.19123387  0.38611650  0.67348927     0.14800
C2265       C  0.44865669  0.19992179  0.62095867    -0.18100
C2266       C  0.44745522  0.19466740  0.64308570    -0.20300
C2267       C  0.44319145  0.16133911  0.65138248     0.20400
C2268       C  0.44155946  0.13277686  0.63721245    -0.03200
C2269       C  0.44323502  0.13801242  0.61485032    -0.06300
C2270       C  0.44593591  0.17188934  0.60670315     0.20700
C2271       C  0.44057558  0.10961599  0.60064392     0.18800
C2272       C  0.43730419  0.07612682  0.60898569    -0.17700
C2273       C  0.43530112  0.07101128  0.63108245    -0.20000
C2274       C  0.43673641  0.09925270  0.64528595     0.20300
C2275       C  0.43197270  0.09483127  0.66724389    -0.33000
C2276       C  0.43219992  0.12341717  0.68134907     0.01000
C2277       C  0.43898734  0.15636919  0.67341861    -0.24300
C2278       C  0.44415345  0.17737075  0.58453109    -0.28900
C2279       C  0.43996791  0.14942640  0.57030855     0.06700
C2280       C  0.43944659  0.11545404  0.57842893    -0.27600
H2281       H  0.45093193  0.22609318  0.61497872     0.11400
H2282       H  0.44887252  0.21688935  0.65368260     0.12500
H2283       H  0.43530825  0.05399685  0.59837604     0.11600
H2284       H  0.43182268  0.04504283  0.63702470     0.10800
H2285       H  0.42699336  0.06930170  0.67325737     0.16200
H2286       H  0.43907081  0.17853814  0.68413248     0.12100
H2287       H  0.44443375  0.20363759  0.57839039     0.15000
H2288       H  0.43575010  0.09389716  0.56764283     0.14800
C2289       C  0.31399950  0.03233904  0.54962821    -0.18100
C2290       C  0.29210227  0.00973140  0.54864609    -0.20300
C2291       C  0.28360490  0.99572527  0.52900879     0.20400
C2292       C  0.29804550  0.00379762  0.51029944    -0.03200
C2293       C  0.32030185  0.02642606  0.51131631    -0.06300
C2294       C  0.32796790  0.04133748  0.53100731     0.20700
C2295       C  0.33417237  0.03522088  0.49247134     0.18800
C2296       C  0.32595180  0.02091156  0.47288371    -0.17700
C2297       C  0.30381130  0.99891424  0.47184054    -0.20000
C2298       C  0.28953940  0.99055945  0.49038758     0.20300
C2299       C  0.26613950  0.97070336  0.48914984    -0.33000
C2300       C  0.25092782  0.96364031  0.50749141     0.01000
C2301       C  0.26020999  0.97537608  0.52752881    -0.24300
C2302       C  0.34872014  0.06598618  0.53156701    -0.28900
C2303       C  0.36222291  0.07560512  0.51272692     0.06700
C2304       C  0.35526860  0.05926085  0.49335878    -0.27600
H2305       H  0.31966566  0.04337492  0.56492670     0.11400
H2306       H  0.28138828  0.00390571  0.56320203     0.12500
H2307       H  0.33627894  0.02739604  0.45825141     0.11600
H2308       H  0.29752178  0.98896356  0.45641693     0.10800
H2309       H  0.25887096  0.96222938  0.47364786     0.16200
H2310       H  0.24826414  0.97085580  0.54164927     0.12100
H2311       H  0.35388992  0.07844053  0.54657675     0.15000
H2312       H  0.36521624  0.06681774  0.47873822     0.14800
C2313       C  0.56238682  0.22911905  0.51030493    -0.18100
C2314       C  0.58405430  0.25231325  0.51098044    -0.20300
C2315       C  0.58277264  0.28462432  0.50062747     0.20400
C2316       C  0.55932066  0.29332973  0.48937149    -0.03200
C2317       C  0.53754214  0.26987810  0.48859988    -0.06300
C2318       C  0.53889841  0.23758470  0.49917480     0.20700
C2319       C  0.51423551  0.27909520  0.47744729     0.18800
C2320       C  0.51265853  0.31142329  0.46729082    -0.17700
C2321       C  0.53397756  0.33460412  0.46817600    -0.20000
C2322       C  0.55733485  0.32584492  0.47918821     0.20300
C2323       C  0.57834643  0.34961580  0.48066725    -0.33000
C2324       C  0.60162354  0.34174778  0.49213610     0.01000
C2325       C  0.60400535  0.30884691  0.50180718    -0.24300
C2326       C  0.51669085  0.21471087  0.49855455    -0.28900
C2327       C  0.49332125  0.22376685  0.48720366     0.06700
C2328       C  0.49265230  0.25615591  0.47673769    -0.27600
H2329       H  0.56398531  0.20457178  0.51857775     0.11400
H2330       H  0.60176219  0.24506815  0.51980360     0.12500
H2331       H  0.49479791  0.31891359  0.45873867     0.11600
H2332       H  0.53211690  0.35952585  0.46035502     0.10800
H2333       H  0.57628859  0.37497106  0.47337215     0.16200
H2334       H  0.62165464  0.30286105  0.51107133     0.12100
H2335       H  0.51755655  0.19018027  0.50691894     0.15000
H2336       H  0.47489442  0.26414679  0.46821154     0.14800
C2337       C  0.44320452  0.37540030  0.52976443    -0.18100
C2338       C  0.44052573  0.41155791  0.52972865    -0.20300
C2339       C  0.41522997  0.42692530  0.52855134     0.20400
C2340       C  0.39235587  0.40566842  0.52835215    -0.03200
C2341       C  0.39503728  0.36922130  0.52896054    -0.06300
C2342       C  0.42061022  0.35400775  0.52897363     0.20700
C2343       C  0.37214150  0.34801935  0.52839866     0.18800
C2344       C  0.34684212  0.36334291  0.52758811    -0.17700
C2345       C  0.34422060  0.39938904  0.52644134    -0.20000
C2346       C  0.36684188  0.42072683  0.52648564     0.20300
C2347       C  0.36445096  0.45669396  0.52376343    -0.33000
C2348       C  0.38717756  0.47792091  0.52339618     0.01000
C2349       C  0.41244147  0.46301674  0.52651085    -0.24300
C2350       C  0.42308039  0.31782938  0.52697327    -0.28900
C2351       C  0.40027583  0.29680250  0.52558481     0.06700
C2352       C  0.37494534  0.31190863  0.52730795    -0.27600
H2353       H  0.46296919  0.36417374  0.52991663     0.11400
H2354       H  0.45828897  0.42749583  0.52990805     0.12500
H2355       H  0.32909083  0.34739112  0.52708767     0.11600
H2356       H  0.32450213  0.41055105  0.52511094     0.10800
H2357       H  0.34496605  0.46812130  0.52132417     0.16200
H2358       H  0.43004420  0.47925554  0.52587863     0.12100
H2359       H  0.44262901  0.30613774  0.52559403     0.15000
H2360       H  0.35735267  0.29573749  0.52589915     0.14800
C2361       C  0.26454213  0.31014816  0.45395887    -0.18100
C2362       C  0.29012623  0.29690112  0.45679766    -0.20300
C2363       C  0.29376634  0.26378234  0.46551942     0.20400
C2364       C  0.27151784  0.24290495  0.47027466    -0.03200
C2365       C  0.24569135  0.25607563  0.46709960    -0.06300
C2366       C  0.24229057  0.29032808  0.45962495     0.20700
C2367       C  0.22337492  0.23600255  0.47292168     0.18800
C2368       C  0.22705782  0.20231004  0.48084368    -0.17700
C2369       C  0.25272986  0.18932691  0.48412143    -0.20000
C2370       C  0.27505567  0.20980012  0.47945081     0.20300
C2371       C  0.30075772  0.19859763  0.48480755    -0.33000
C2372       C  0.32283099  0.22012245  0.48104374     0.01000
C2373       C  0.31924090  0.25204444  0.47065375    -0.24300
C2374       C  0.21694059  0.30518738  0.45969056    -0.28900
C2375       C  0.19507375  0.28627184  0.46715019     0.06700
C2376       C  0.19802024  0.25108234  0.47245676    -0.27600
H2377       H  0.26219319  0.33639037  0.44810077     0.11400
H2378       H  0.30707505  0.31310338  0.45298311     0.12500
H2379       H  0.21011752  0.18657694  0.48535864     0.11600
H2380       H  0.25510676  0.16376372  0.49101171     0.10800
H2381       H  0.30348167  0.17371906  0.49253535     0.16200
H2382       H  0.33616715  0.26874657  0.46760694     0.12100
H2383       H  0.21453148  0.33236650  0.45569319     0.15000
H2384       H  0.18112323  0.23668516  0.47854565     0.14800
C2385       C  0.35095757  0.20962025  0.12968127    -0.18100
C2386       C  0.35088609  0.20397695  0.10753084    -0.20300
C2387       C  0.34435121  0.17126444  0.09906916     0.20400
C2388       C  0.33668168  0.14443973  0.11311269    -0.03200
C2389       C  0.33648189  0.15026533  0.13552200    -0.06300
C2390       C  0.34430950  0.18273253  0.14382186     0.20700
C2391       C  0.32977982  0.12307361  0.14962916     0.18800
C2392       C  0.32229148  0.09076220  0.14108991    -0.17700
C2393       C  0.32281440  0.08486457  0.11896360    -0.20000
C2394       C  0.33063093  0.11123749  0.10487695     0.20300
C2395       C  0.33397152  0.10444954  0.08291080    -0.33000
C2396       C  0.34277939  0.13058903  0.06895143     0.01000
C2397       C  0.34686179  0.16432502  0.07701447    -0.24300
C2398       C  0.34668546  0.18723430  0.16607330    -0.28900
C2399       C  0.34156766  0.15967431  0.18036471     0.06700
C2400       C  0.33208104  0.12804446  0.17195308    -0.27600
H2401       H  0.35690889  0.23480386  0.13578021     0.11400
H2402       H  0.35678588  0.22491557  0.09705285     0.12500
H2403       H  0.31689857  0.06961676  0.15158155     0.11600
H2404       H  0.31783872  0.05929888  0.11291139     0.10800
H2405       H  0.33091009  0.07839480  0.07679332     0.16200
H2406       H  0.35405019  0.18442691  0.06641248     0.12100
H2407       H  0.35378018  0.21189171  0.17223232     0.15000
H2408       H  0.32819867  0.10659292  0.18264926     0.14800
C2409       C  0.19776371  0.25658997  0.22942349    -0.18100
C2410       C  0.21936059  0.23345099  0.23092739    -0.20300
C2411       C  0.23835262  0.23684042  0.24736971     0.20400
C2412       C  0.23517463  0.26379172  0.26252625    -0.03200
C2413       C  0.21340312  0.28719949  0.26099169    -0.06300
C2414       C  0.19459869  0.28373327  0.24431484     0.20700
C2415       C  0.21092873  0.31468914  0.27584407     0.18800
C2416       C  0.22988990  0.31833273  0.29218372    -0.17700
C2417       C  0.25119236  0.29514980  0.29378352    -0.20000
C2418       C  0.25408655  0.26793213  0.27900056     0.20300
C2419       C  0.27600549  0.24545572  0.28020358    -0.33000
C2420       C  0.28002918  0.21883542  0.26497015     0.01000
C2421       C  0.26075930  0.21448472  0.24865360    -0.24300
C2422       C  0.17361556  0.30815574  0.24248645    -0.28900
C2423       C  0.17139722  0.33601769  0.25711289     0.06700
C2424       C  0.19010546  0.33880524  0.27375118    -0.27600
H2425       H  0.18366889  0.25346282  0.21643021     0.11400
H2426       H  0.22134034  0.21307372  0.21906797     0.12500
H2427       H  0.22837920  0.33935806  0.30365901     0.11600
H2428       H  0.26563446  0.29879110  0.30648309     0.10800
H2429       H  0.29048458  0.24953812  0.29283287     0.16200
H2430       H  0.26357959  0.19451586  0.23663847     0.12100
H2431       H  0.15984904  0.30650885  0.22915796     0.15000
H2432       H  0.18900166  0.36072007  0.28463851     0.14800
C2433       C  0.33235706  0.41301888  0.23485275    -0.18100
C2434       C  0.32984063  0.37689522  0.23569044    -0.20300
C2435       C  0.35188566  0.35552669  0.23165529     0.20400
C2436       C  0.37638239  0.37061049  0.22575040    -0.03200
C2437       C  0.37904662  0.40700300  0.22527161    -0.06300
C2438       C  0.35702140  0.42830465  0.23017100     0.20700
C2439       C  0.40415124  0.42200731  0.22113609     0.18800
C2440       C  0.42586810  0.40066116  0.21614913    -0.17700
C2441       C  0.42309576  0.36461556  0.21619756    -0.20000
C2442       C  0.39866309  0.34939774  0.22154401     0.20300
C2443       C  0.39662201  0.31347207  0.22408600    -0.33000
C2444       C  0.37294056  0.29859619  0.23163350     0.01000
C2445       C  0.35034192  0.31955175  0.23463901    -0.24300
C2446       C  0.36048654  0.46436270  0.23152806    -0.28900
C2447       C  0.38587273  0.47902965  0.22890440     0.06700
C2448       C  0.40745264  0.45792587  0.22323323    -0.27600
H2449       H  0.31525480  0.42900601  0.23861844     0.11400
H2450       H  0.31085757  0.36570562  0.24010482     0.12500
H2451       H  0.44519293  0.41182633  0.21278529     0.11600
H2452       H  0.44034247  0.34863196  0.21287588     0.10800
H2453       H  0.41411526  0.29743485  0.22178389     0.16200
H2454       H  0.33194074  0.30806975  0.24023457     0.12100
H2455       H  0.34394894  0.48073025  0.23626602     0.15000
H2456       H  0.42701125  0.46938859  0.22131699     0.14800
C2457       C  0.44539765  0.01407377  0.27568038    -0.18100
C2458       C  0.46753441  0.99214147  0.27711848    -0.20300
C2459       C  0.48554801  0.98938588  0.26008130     0.20400
C2460       C  0.48095957  0.00849410  0.24123179    -0.03200
C2461       C  0.45875580  0.03099892  0.23988984    -0.06300
C2462       C  0.44095469  0.03391838  0.25725214     0.20700
C2463       C  0.45492699  0.05146570  0.22150553     0.18800
C2464       C  0.47287710  0.04859666  0.20441014    -0.17700
C2465       C  0.49474432  0.02614672  0.20567218    -0.20000
C2466       C  0.49913454  0.00620749  0.22408242     0.20300
C2467       C  0.52198177  0.98529721  0.22606745    -0.33000
C2468       C  0.52710477  0.96724239  0.24512407     0.01000
C2469       C  0.50867689  0.96911342  0.26194646    -0.24300
C2470       C  0.41967791  0.05761729  0.25624890    -0.28900
C2471       C  0.41636406  0.07915864  0.23833976     0.06700
C2472       C  0.43383373  0.07538032  0.22086794    -0.27600
H2473       H  0.43203147  0.01605331  0.28919077     0.11400
H2474       H  0.47078324  0.97769887  0.29171485     0.12500
H2475       H  0.47024631  0.06415704  0.19017567     0.11600
H2476       H  0.50851851  0.02488535  0.19239676     0.10800
H2477       H  0.53665532  0.98488303  0.21338801     0.16200
H2478       H  0.51302949  0.95602805  0.27686432     0.12100
H2479       H  0.40663622  0.06069332  0.26990260     0.15000
H2480       H  0.43150094  0.09188369  0.20699529     0.14800
C2481       C  0.34250626  0.13224005  0.39735273    -0.18100
C2482       C  0.33485304  0.13064158  0.37577857    -0.20300
C2483       C  0.35405211  0.12855209  0.35954170     0.20400
C2484       C  0.38122369  0.12604729  0.36533656    -0.03200
C2485       C  0.38898553  0.12758476  0.38720915    -0.06300
C2486       C  0.36953910  0.13172137  0.40319872     0.20700
C2487       C  0.41625038  0.12716238  0.39294922     0.18800
C2488       C  0.43537649  0.12356038  0.37675399    -0.17700
C2489       C  0.42772918  0.12223447  0.35516517    -0.20000
C2490       C  0.40076408  0.12437882  0.34925348     0.20300
C2491       C  0.39319227  0.12748786  0.32762252    -0.33000
C2492       C  0.36634091  0.13253223  0.32168263     0.01000
C2493       C  0.34675160  0.13153250  0.33773834    -0.24300
C2494       C  0.37747507  0.13737391  0.42455302    -0.28900
C2495       C  0.40463535  0.13890873  0.43036286     0.06700
C2496       C  0.42392087  0.13244875  0.41453712    -0.27600
H2497       H  0.32726330  0.13511203  0.40944705     0.11400
H2498       H  0.31391247  0.13236897  0.37176569     0.12500
H2499       H  0.45636669  0.12299693  0.38072719     0.11600
H2500       H  0.44303082  0.12075647  0.34302748     0.10800
H2501       H  0.40846693  0.12886115  0.31543679     0.16200
H2502       H  0.32615656  0.13626675  0.33346705     0.12100
H2503       H  0.36246537  0.14249387  0.43658603     0.15000
H2504       H  0.44482930  0.13411889  0.41870729     0.14800
C2505       C  0.67684860  0.32151236  0.37116322    -0.18100
C2506       C  0.67833706  0.32923287  0.39300840    -0.20300
C2507       C  0.68480119  0.36283954  0.39993843     0.20400
C2508       C  0.69048887  0.38867810  0.38458329    -0.03200
C2509       C  0.68897003  0.38088411  0.36251079    -0.06300
C2510       C  0.68180595  0.34725756  0.35584089     0.20700
C2511       C  0.69390445  0.40695200  0.34715639     0.18800
C2512       C  0.70088754  0.44040025  0.35409018    -0.17700
C2513       C  0.70230471  0.44816849  0.37593869    -0.20000
C2514       C  0.69677976  0.42261696  0.39125247     0.20300
C2515       C  0.69623661  0.43083569  0.41306649    -0.33000
C2516       C  0.68917922  0.40578433  0.42841878     0.01000
C2517       C  0.68445244  0.37147783  0.42184100    -0.24300
C2518       C  0.67914144  0.34006080  0.33398271    -0.28900
C2519       C  0.68336517  0.36598959  0.31844570     0.06700
C2520       C  0.69119011  0.39931787  0.32520878    -0.27600
H2521       H  0.67138576  0.29548337  0.36624321     0.11400
H2522       H  0.67391464  0.30906547  0.40448058     0.12500
H2523       H  0.70482117  0.46073010  0.34261194     0.11600
H2524       H  0.70721327  0.47438395  0.38086006     0.10800
H2525       H  0.70013303  0.45732373  0.41808149     0.16200
H2526       H  0.67882099  0.35218742  0.43355480     0.12100
H2527       H  0.67336544  0.31410897  0.32911684     0.15000
H2528       H  0.69453703  0.41946420  0.31348120     0.14800
C2529       C  0.54166944  0.50942624  0.29644651    -0.18100
C2530       C  0.56433713  0.48844208  0.29424135    -0.20300
C2531       C  0.57417825  0.47986393  0.27389274     0.20400
C2532       C  0.56143444  0.49360446  0.25562098    -0.03200
C2533       C  0.53883642  0.51529757  0.25786275    -0.06300
C2534       C  0.52854080  0.52263684  0.27835888     0.20700
C2535       C  0.52602069  0.52864278  0.23953361     0.18800
C2536       C  0.53589487  0.52029966  0.21919382    -0.17700
C2537       C  0.55787366  0.49832098  0.21696865    -0.20000
C2538       C  0.57061490  0.48460970  0.23504564     0.20300
C2539       C  0.59161256  0.46088682  0.23284105    -0.33000
C2540       C  0.60393308  0.44621479  0.25087132     0.01000
C2541       C  0.59567535  0.45658117  0.27141177    -0.24300
C2542       C  0.50490208  0.54213900  0.28031199    -0.28900
C2543       C  0.49197423  0.55534385  0.26205559     0.06700
C2544       C  0.50304146  0.54911612  0.24179058    -0.27600
H2545       H  0.53418192  0.51492922  0.31232326     0.11400
H2546       H  0.57378521  0.47820949  0.30846532     0.12500
H2547       H  0.52625560  0.53019028  0.20495718     0.11600
H2548       H  0.56469240  0.49165147  0.20105952     0.10800
H2549       H  0.59777546  0.45269498  0.21700184     0.16200
H2550       H  0.60474169  0.44479285  0.28534465     0.12100
H2551       H  0.49636299  0.54671844  0.29596373     0.15000
H2552       H  0.49290401  0.55868724  0.22767222     0.14800
C2553       C  0.80604859  0.28855000  0.27705096    -0.18100
C2554       C  0.82865193  0.26730233  0.27572242    -0.20300
C2555       C  0.83475803  0.24960868  0.25669238     0.20400
C2556       C  0.81847724  0.25480222  0.23852026    -0.03200
C2557       C  0.79577320  0.27666916  0.23978163    -0.06300
C2558       C  0.78916099  0.29283351  0.25932164     0.20700
C2559       C  0.77894117  0.28084468  0.22183085     0.18800
C2560       C  0.78553707  0.26406441  0.20259323    -0.17700
C2561       C  0.80781733  0.24221836  0.20140545    -0.20000
C2562       C  0.82408271  0.23681227  0.21940136     0.20300
C2563       C  0.84497593  0.21244633  0.21891160    -0.33000
C2564       C  0.86058415  0.20571197  0.23725569     0.01000
C2565       C  0.85592965  0.22549045  0.25586254    -0.24300
C2566       C  0.76509958  0.31140419  0.26111437    -0.28900
C2567       C  0.74765625  0.31455982  0.24356715     0.06700
C2568       C  0.75512468  0.30008687  0.22377557    -0.27600
H2569       H  0.80139688  0.30094638  0.29215406     0.11400
H2570       H  0.84089922  0.26383434  0.28982712     0.12500
H2571       H  0.77298480  0.26697867  0.18861174     0.11600
H2572       H  0.81191549  0.22879773  0.18652872     0.10800
H2573       H  0.84839665  0.19758365  0.20443215     0.16200
H2574       H  0.86756789  0.22041585  0.27012067     0.12100
H2575       H  0.75925591  0.32202635  0.27647295     0.15000
H2576       H  0.74152774  0.30173423  0.21033708     0.14800
C2577       C  0.58463797  0.12676285  0.20925473    -0.18100
C2578       C  0.58696393  0.16295677  0.20947078    -0.20300
C2579       C  0.61214452  0.17869879  0.21036048     0.20400
C2580       C  0.63520938  0.15776977  0.20967700    -0.03200
C2581       C  0.63287122  0.12130820  0.20941333    -0.06300
C2582       C  0.60746093  0.10577359  0.20991581     0.20700
C2583       C  0.65597756  0.10048165  0.21024897     0.18800
C2584       C  0.68115112  0.11616114  0.21022022    -0.17700
C2585       C  0.68346315  0.15224223  0.21049244    -0.20000
C2586       C  0.66063840  0.17315915  0.21082386     0.20300
C2587       C  0.66284033  0.20895639  0.21393545    -0.33000
C2588       C  0.64001186  0.22958275  0.21652474     0.01000
C2589       C  0.61469986  0.21465923  0.21355956    -0.24300
C2590       C  0.60537554  0.06980326  0.21275648    -0.28900
C2591       C  0.62838022  0.04935567  0.21532838     0.06700
C2592       C  0.65355597  0.06456307  0.21280889    -0.27600
H2593       H  0.56498037  0.11520986  0.20948309     0.11400
H2594       H  0.56905668  0.17859463  0.20985622     0.12500
H2595       H  0.69905306  0.10052961  0.21087168     0.11600
H2596       H  0.70311221  0.16376322  0.21133087     0.10800
H2597       H  0.68240960  0.22040393  0.21595082     0.16200
H2598       H  0.59700890  0.23041184  0.21559038     0.12100
H2599       H  0.58588237  0.05810950  0.21456101     0.15000
H2600       H  0.67134109  0.04900460  0.21491332     0.14800
C2601       C  0.48503691  0.30654508  0.28961927    -0.18100
C2602       C  0.51086816  0.31983027  0.29026732    -0.20300
C2603       C  0.53279395  0.29758260  0.28820618     0.20400
C2604       C  0.52879855  0.26140717  0.28675594    -0.03200
C2605       C  0.50272420  0.24805196  0.28572509    -0.06300
C2606       C  0.48080634  0.27088948  0.28667401     0.20700
C2607       C  0.49864070  0.21224371  0.28215972     0.18800
C2608       C  0.52060549  0.18979583  0.28142384    -0.17700
C2609       C  0.54649830  0.20299662  0.28273473    -0.20000
C2610       C  0.55078373  0.23886251  0.28459821     0.20300
C2611       C  0.57640515  0.25281096  0.28238793    -0.33000
C2612       C  0.57996869  0.28892261  0.28143657     0.01000
C2613       C  0.55840939  0.31107514  0.28568451    -0.24300
C2614       C  0.45514954  0.25807340  0.28317177    -0.28900
C2615       C  0.45121297  0.22307779  0.27776707     0.06700
C2616       C  0.47284264  0.19998001  0.27801167    -0.27600
H2617       H  0.46837492  0.32433688  0.29043727     0.11400
H2618       H  0.51366852  0.34764049  0.29150111     0.12500
H2619       H  0.51779542  0.16219664  0.27896912     0.11600
H2620       H  0.56315875  0.18533053  0.28120143     0.10800
H2621       H  0.59300615  0.23568343  0.27903796     0.16200
H2622       H  0.56121959  0.33896238  0.28517345     0.12100
H2623       H  0.43847359  0.27592804  0.28293158     0.15000
H2624       H  0.46971663  0.17286099  0.27407653     0.14800
C2625       C  0.59842214  0.46397114  0.87088324    -0.18100
C2626       C  0.59632813  0.45670735  0.89268859    -0.20300
C2627       C  0.58953663  0.42329506  0.89955202     0.20400
C2628       C  0.58410772  0.39718207  0.88415522    -0.03200
C2629       C  0.58637305  0.40446936  0.86211722    -0.06300
C2630       C  0.59384906  0.43791170  0.85555880     0.20700
C2631       C  0.58193066  0.37808944  0.84671459     0.18800
C2632       C  0.57448796  0.34487003  0.85357815    -0.17700
C2633       C  0.57224517  0.33761582  0.87541651    -0.20000
C2634       C  0.57743432  0.36345462  0.89077795     0.20300
C2635       C  0.57741155  0.35569858  0.91262335    -0.33000
C2636       C  0.58441355  0.38097103  0.92801893     0.01000
C2637       C  0.58943293  0.41508686  0.92146116    -0.24300
C2638       C  0.59723264  0.44467637  0.83381474    -0.28900
C2639       C  0.59356281  0.41848474  0.81821664     0.06700
C2640       C  0.58555178  0.38523963  0.82482329    -0.27600
H2641       H  0.60411818  0.48986789  0.86600744     0.11400
H2642       H  0.60054939  0.47706516  0.90419365     0.12500
H2643       H  0.57085646  0.32432133  0.84207327     0.11600
H2644       H  0.56703669  0.31155480  0.88030816     0.10800
H2645       H  0.57337158  0.32931867  0.91764512     0.16200
H2646       H  0.59508913  0.43448993  0.93321086     0.12100
H2647       H  0.60324737  0.47055614  0.82913974     0.15000
H2648       H  0.58251337  0.36492163  0.81304785     0.14800
C2649       C  0.68854432  0.35657326  0.12770944    -0.18100
C2650       C  0.68309813  0.35433581  0.10586391    -0.20300
C2651       C  0.65950070  0.36828000  0.09746226     0.20400
C2652       C  0.64151930  0.38560864  0.11093674    -0.03200
C2653       C  0.64710175  0.38802935  0.13307802    -0.06300
C2654       C  0.67053860  0.37290366  0.14152026     0.20700
C2655       C  0.62869741  0.40407175  0.14687357     0.18800
C2656       C  0.60539355  0.41872964  0.13827646    -0.17700
C2657       C  0.59997520  0.41654862  0.11626944    -0.20000
C2658       C  0.61767602  0.39951373  0.10240849     0.20300
C2659       C  0.61180288  0.39534604  0.08036031    -0.33000
C2660       C  0.62945530  0.37697883  0.06699211     0.01000
C2661       C  0.65345989  0.36433773  0.07583506    -0.24300
C2662       C  0.67481927  0.37249613  0.16371309    -0.28900
C2663       C  0.65587016  0.38666588  0.17759271     0.06700
C2664       C  0.63322548  0.40329606  0.16908276    -0.27600
H2665       H  0.70657377  0.34483100  0.13386957     0.11400
H2666       H  0.69712532  0.34102343  0.09557844     0.12500
H2667       H  0.59104699  0.43123677  0.14865214     0.11600
H2668       H  0.58165139  0.42756171  0.11016833     0.10800
H2669       H  0.59343332  0.40553729  0.07380909     0.16200
H2670       H  0.66775301  0.35091770  0.06583000     0.12100
H2671       H  0.69180749  0.35879577  0.17027308     0.15000
H2672       H  0.61823355  0.41343740  0.17986752     0.14800
C2673       C  0.44600569  0.26464435  0.97254175    -0.18100
C2674       C  0.46678072  0.28874197  0.97092323    -0.20300
C2675       C  0.48488608  0.29336397  0.98783708     0.20400
C2676       C  0.48155711  0.27423029  0.00681777    -0.03200
C2677       C  0.46079813  0.24948954  0.00832155    -0.06300
C2678       C  0.44306475  0.24447247  0.99103134     0.20700
C2679       C  0.45841775  0.22891846  0.02681099     0.18800
C2680       C  0.47619887  0.23404437  0.04388844    -0.17700
C2681       C  0.49659092  0.25870616  0.04247483    -0.20000
C2682       C  0.49972412  0.27859140  0.02390372     0.20300
C2683       C  0.52159390  0.30113884  0.02161762    -0.33000
C2684       C  0.52596021  0.31847953  0.00222835     0.01000
C2685       C  0.50712971  0.31518819  0.98563645    -0.24300
C2686       C  0.42327465  0.21866284  0.99225972    -0.28900
C2687       C  0.42129275  0.19721873  0.01038700     0.06700
C2688       C  0.43882068  0.20291838  0.02768501    -0.27600
H2689       H  0.43259900  0.26120980  0.95911063     0.11400
H2690       H  0.46901557  0.30326384  0.95624379     0.12500
H2691       H  0.47461742  0.21853519  0.05823466     0.11600
H2692       H  0.51034891  0.26158920  0.05572291     0.10800
H2693       H  0.53644080  0.30282327  0.03418512     0.16200
H2694       H  0.51073616  0.32800526  0.97051616     0.12100
H2695       H  0.41012304  0.21435849  0.97874787     0.15000
H2696       H  0.43751154  0.18668852  0.04175419     0.14800
C2697       C  0.68115080  0.16054378  0.02426671    -0.18100
C2698       C  0.68338217  0.12438861  0.02450807    -0.20300
C2699       C  0.66053859  0.10344723  0.02372349     0.20400
C2700       C  0.63514879  0.11902469  0.02368420    -0.03200
C2701       C  0.63290006  0.15555699  0.02342079    -0.06300
C2702       C  0.65604592  0.17636738  0.02324470     0.20700
C2703       C  0.60756972  0.17114916  0.02208365     0.18800
C2704       C  0.58469218  0.15020038  0.02208022    -0.17700
C2705       C  0.58692461  0.11400865  0.02236239    -0.20000
C2706       C  0.61206379  0.09815085  0.02265865     0.20300
C2707       C  0.61456979  0.06197372  0.02062361    -0.33000
C2708       C  0.63987919  0.04649829  0.01918738     0.01000
C2709       C  0.66271788  0.06734016  0.02166255    -0.24300
C2710       C  0.65376959  0.21241958  0.02071870    -0.28900
C2711       C  0.62867809  0.22788754  0.01785902     0.06700
C2712       C  0.60562059  0.20720308  0.01946167    -0.27600
H2713       H  0.69911007  0.17610911  0.02415977     0.11400
H2714       H  0.70302316  0.11279666  0.02460026     0.12500
H2715       H  0.56507983  0.16177715  0.02113789     0.11600
H2716       H  0.56899505  0.09841909  0.02161794     0.10800
H2717       H  0.59685380  0.04622691  0.01860442     0.16200
H2718       H  0.68231328  0.05567207  0.02072429     0.12100
H2719       H  0.67163738  0.22803507  0.01942840     0.15000
H2720       H  0.58615596  0.21888856  0.01744439     0.14800
C2721       C  0.69553573  0.52858062  0.01904037    -0.18100
C2722       C  0.71749089  0.55125669  0.01816635    -0.20300
C2723       C  0.73735896  0.54702325  0.00255958     0.20400
C2724       C  0.73433826  0.52017522  0.98727529    -0.03200
C2725       C  0.71235818  0.49703290  0.98829515    -0.06300
C2726       C  0.69299208  0.50090336  0.00443402     0.20700
C2727       C  0.71040624  0.46915023  0.97364779     0.18800
C2728       C  0.72964657  0.46547170  0.95761147    -0.17700
C2729       C  0.75105262  0.48853718  0.95641889    -0.20000
C2730       C  0.75381544  0.51553686  0.97138795     0.20300
C2731       C  0.77639709  0.53688348  0.97117830    -0.33000
C2732       C  0.78081151  0.56244150  0.98706004     0.01000
C2733       C  0.76064570  0.56802469  0.00243243    -0.24300
C2734       C  0.67220038  0.47619868  0.00615545    -0.28900
C2735       C  0.67097762  0.44745460  0.99212430     0.06700
C2736       C  0.68992544  0.44457677  0.97575907    -0.27600
H2737       H  0.68087597  0.53218621  0.03151662     0.11400
H2738       H  0.71918301  0.57173169  0.02999717     0.12500
H2739       H  0.72841616  0.44431816  0.94619649     0.11600
H2740       H  0.76587895  0.48466286  0.94409415     0.10800
H2741       H  0.79132500  0.53228706  0.95901531     0.16200
H2742       H  0.76359088  0.58740857  0.01479815     0.12100
H2743       H  0.65789543  0.47826698  0.01903168     0.15000
H2744       H  0.68922546  0.42235563  0.96508142     0.14800
C2745       C  0.85038177  0.08076603  0.61915295    -0.18100
C2746       C  0.85145662  0.08683475  0.64117447    -0.20300
C2747       C  0.84994038  0.12075465  0.64926333     0.20400
C2748       C  0.84701981  0.14885852  0.63501444    -0.03200
C2749       C  0.84567129  0.14269453  0.61275938    -0.06300
C2750       C  0.84767340  0.10851233  0.60485137     0.20700
C2751       C  0.84339086  0.17078762  0.59841330     0.18800
C2752       C  0.84200991  0.20472856  0.60654596    -0.17700
C2753       C  0.84361843  0.21087473  0.62859679    -0.20000
C2754       C  0.84641409  0.18316317  0.64294041     0.20300
C2755       C  0.84952528  0.18914973  0.66497832    -0.33000
C2756       C  0.85261439  0.16122407  0.67920389     0.01000
C2757       C  0.85225443  0.12711281  0.67128216    -0.24300
C2758       C  0.84835403  0.10276105  0.58276213    -0.28900
C2759       C  0.84758605  0.13069430  0.56832289     0.06700
C2760       C  0.84402888  0.16456563  0.57622551    -0.27600
H2761       H  0.85211483  0.05438355  0.61328247     0.11400
H2762       H  0.85391570  0.06501920  0.65186896     0.12500
H2763       H  0.84032571  0.22661587  0.59581508     0.11600
H2764       H  0.84307584  0.23737209  0.63441448     0.10800
H2765       H  0.85018143  0.21552100  0.67104962     0.16200
H2766       H  0.85536518  0.10562662  0.68214670     0.12100
H2767       H  0.85107098  0.07655142  0.57678907     0.15000
H2768       H  0.84382976  0.18622997  0.56522933     0.14800
C2769       C  0.76177809  0.30550168  0.79214569    -0.18100
C2770       C  0.74022355  0.32839720  0.79076643    -0.20300
C2771       C  0.72009284  0.32311365  0.77550787     0.20400
C2772       C  0.72137210  0.29387004  0.76188035    -0.03200
C2773       C  0.74345115  0.27091549  0.76307814    -0.06300
C2774       C  0.76380252  0.27704248  0.77814502     0.20700
C2775       C  0.74559036  0.24259250  0.74876680     0.18800
C2776       C  0.72502064  0.23691947  0.73388294    -0.17700
C2777       C  0.70305331  0.25944469  0.73281602    -0.20000
C2778       C  0.70116225  0.28833373  0.74652186     0.20300
C2779       C  0.68013736  0.31256700  0.74455147    -0.33000
C2780       C  0.67947914  0.34264495  0.75743815     0.01000
C2781       C  0.69936612  0.34734633  0.77306349    -0.24300
C2782       C  0.78630858  0.25542450  0.77853276    -0.28900
C2783       C  0.78946515  0.22783666  0.76375974     0.06700
C2784       C  0.76857952  0.22123836  0.74914768    -0.27600
H2785       H  0.77722856  0.31055320  0.80386097     0.11400
H2786       H  0.73954329  0.35061488  0.80141256     0.12500
H2787       H  0.72611817  0.21532933  0.72278834     0.11600
H2788       H  0.68778807  0.25466072  0.72090968     0.10800
H2789       H  0.66526312  0.30917687  0.73214263     0.16200
H2790       H  0.69921380  0.37068410  0.78280201     0.12100
H2791       H  0.80192660  0.26105805  0.79000849     0.15000
H2792       H  0.77055700  0.20029794  0.73766213     0.14800
C2793       C  0.84333967  0.38147010  0.72893382    -0.18100
C2794       C  0.84520627  0.41762279  0.72873612    -0.20300
C2795       C  0.87008068  0.43384450  0.72688232     0.20400
C2796       C  0.89326735  0.41349990  0.72458723    -0.03200
C2797       C  0.89133809  0.37700812  0.72446226    -0.06300
C2798       C  0.86630338  0.36100972  0.72712038     0.20700
C2799       C  0.91456883  0.35658102  0.72274720     0.18800
C2800       C  0.93941322  0.37285292  0.72067554    -0.17700
C2801       C  0.94137441  0.40905436  0.72115174    -0.20000
C2802       C  0.91848320  0.42956423  0.72345111     0.20300
C2803       C  0.92042260  0.46571404  0.72561292    -0.33000
C2804       C  0.89742149  0.48590154  0.72835719     0.01000
C2805       C  0.87229684  0.46997929  0.72831988    -0.24300
C2806       C  0.86482081  0.32493755  0.72911870    -0.28900
C2807       C  0.88799879  0.30462460  0.72850066     0.06700
C2808       C  0.91267883  0.32037183  0.72439727    -0.27600
H2809       H  0.82399816  0.36951697  0.73098828     0.11400
H2810       H  0.82726060  0.43290428  0.73060414     0.12500
H2811       H  0.95742773  0.35756257  0.71935790     0.11600
H2812       H  0.96085405  0.42099235  0.72016894     0.10800
H2813       H  0.93980547  0.47808559  0.72585243     0.16200
H2814       H  0.85461307  0.48554980  0.73093501     0.12100
H2815       H  0.84576190  0.31275410  0.73220988     0.15000
H2816       H  0.93061851  0.30474840  0.72415728     0.14800
C2817       C  0.96592638  0.98365658  0.77295255    -0.18100
C2818       C  0.94449530  0.00690720  0.77132739    -0.20300
C2819       C  0.94320978  0.03095149  0.75451712     0.20400
C2820       C  0.96325074  0.03035291  0.73870532    -0.03200
C2821       C  0.98475941  0.00663648  0.74022364    -0.06300
C2822       C  0.98646558  0.98376627  0.75772835     0.20700
C2823       C  0.00530415  0.00719116  0.72484271     0.18800
C2824       C  0.00377917  0.03063211  0.70778905    -0.17700
C2825       C  0.98260205  0.05406046  0.70632133    -0.20000
C2826       C  0.96250206  0.05451051  0.72186820     0.20300
C2827       C  0.94237356  0.07973103  0.72129932    -0.33000
C2828       C  0.92289117  0.08181430  0.73746486     0.01000
C2829       C  0.92301460  0.05652373  0.75373326    -0.24300
C2830       C  0.00942804  0.96309023  0.76035813    -0.28900
C2831       C  0.03048548  0.96468609  0.74553753     0.06700
C2832       C  0.02782225  0.98593394  0.72747704    -0.27600
H2833       H  0.96678377  0.96618402  0.78645798     0.11400
H2834       H  0.92931039  0.00674235  0.78358719     0.12500
H2835       H  0.01937205  0.03150646  0.69587340     0.11600
H2836       H  0.98229745  0.07244748  0.69326775     0.10800
H2837       H  0.94252125  0.09870465  0.70855558     0.16200
H2838       H  0.90829092  0.05780282  0.76633814     0.12100
H2839       H  0.01171994  0.94749155  0.77462663     0.15000
H2840       H  0.04432152  0.98809391  0.71641708     0.14800
C2841       C  0.02016928  0.31463436  0.80331113    -0.18100
C2842       C  0.99454872  0.30161966  0.80020139    -0.20300
C2843       C  0.99084500  0.26789643  0.79226642     0.20400
C2844       C  0.01301666  0.24624555  0.78862858    -0.03200
C2845       C  0.03887119  0.25921067  0.79206959    -0.06300
C2846       C  0.04238471  0.29398259  0.79869092     0.20700
C2847       C  0.06116377  0.23840012  0.78713770     0.18800
C2848       C  0.05737897  0.20416971  0.78002177    -0.17700
C2849       C  0.03168652  0.19136703  0.77650018    -0.20000
C2850       C  0.00944094  0.21257864  0.78011037     0.20300
C2851       C  0.98385976  0.20160636  0.77415391    -0.33000
C2852       C  0.96195768  0.22390916  0.77670977     0.01000
C2853       C  0.96546146  0.25633558  0.78663221    -0.24300
C2854       C  0.06783953  0.30851325  0.79851888    -0.28900
C2855       C  0.08962393  0.28890768  0.79146238     0.06700
C2856       C  0.08660850  0.25327706  0.78735836    -0.27600
H2857       H  0.02260716  0.34132838  0.80844861     0.11400
H2858       H  0.97766081  0.31844692  0.80311231     0.12500
H2859       H  0.07428907  0.18786850  0.77619566     0.11600
H2860       H  0.02926488  0.16537005  0.77014021     0.10800
H2861       H  0.98115222  0.17637260  0.76674723     0.16200
H2862       H  0.94864397  0.27364529  0.78867192     0.12100
H2863       H  0.07031069  0.33604295  0.80161213     0.15000
H2864       H  0.10344287  0.23831980  0.78162572     0.14800
C2865       C  0.94006747  0.20267400  0.11792417    -0.18100
C2866       C  0.94201728  0.19753870  0.14001225    -0.20300
C2867       C  0.94113410  0.16393910  0.14853853     0.20400
C2868       C  0.93989886  0.13511872  0.13453088    -0.03200
C2869       C  0.93835207  0.14029036  0.11218746    -0.06300
C2870       C  0.93750375  0.17428318  0.10394689     0.20700
C2871       C  0.93598602  0.11153375  0.09822943     0.18800
C2872       C  0.93624879  0.07786482  0.10670185    -0.17700
C2873       C  0.93732477  0.07276983  0.12883758    -0.20000
C2874       C  0.93843589  0.10124727  0.14288091     0.20300
C2875       C  0.93623010  0.09660810  0.16505312    -0.33000
C2876       C  0.93557115  0.12535470  0.17901918     0.01000
C2877       C  0.93948998  0.15880517  0.17075549    -0.24300
C2878       C  0.93257454  0.17932138  0.08207542    -0.28900
C2879       C  0.92889652  0.15084283  0.06824221     0.06700
C2880       C  0.93177878  0.11701166  0.07625050    -0.27600
H2881       H  0.93971342  0.22893879  0.11182563     0.11400
H2882       H  0.94309258  0.21994800  0.15048315     0.12500
H2883       H  0.93456965  0.05548690  0.09625486     0.11600
H2884       H  0.93639280  0.04656753  0.13499857     0.10800
H2885       H  0.93332615  0.07073049  0.17138091     0.16200
H2886       H  0.93874347  0.18102579  0.18141273     0.12100
H2887       H  0.93046782  0.20544412  0.07592556     0.15000
H2888       H  0.92870210  0.09500505  0.06568579     0.14800
C2889       C  0.72020350  0.20168231  0.96661611    -0.18100
C2890       C  0.74574773  0.18908278  0.97094622    -0.20300
C2891       C  0.76797679  0.21092915  0.96920129     0.20400
C2892       C  0.76462642  0.24522086  0.96180950    -0.03200
C2893       C  0.73889050  0.25793611  0.95745515    -0.06300
C2894       C  0.71651237  0.23634213  0.96049597     0.20700
C2895       C  0.73542969  0.29303026  0.95172560     0.18800
C2896       C  0.75771616  0.31446575  0.94904700    -0.17700
C2897       C  0.78323257  0.30177161  0.95315769    -0.20000
C2898       C  0.78679163  0.26750720  0.96007425     0.20300
C2899       C  0.81194515  0.25573170  0.96631835    -0.33000
C2900       C  0.81519765  0.22227151  0.97481153     0.01000
C2901       C  0.79326965  0.19968575  0.97571183    -0.24300
C2902       C  0.69089641  0.25068932  0.95945732    -0.28900
C2903       C  0.68767549  0.28651394  0.95632855     0.06700
C2904       C  0.70976529  0.30693817  0.95085955    -0.27600
H2905       H  0.70324947  0.18476637  0.96900257     0.11400
H2906       H  0.74800892  0.16261605  0.97642923     0.12500
H2907       H  0.75533685  0.34144993  0.94463917     0.11600
H2908       H  0.80008955  0.31913152  0.95169704     0.10800
H2909       H  0.82876221  0.27332200  0.96561730     0.16200
H2910       H  0.79575845  0.17373333  0.98202848     0.12100
H2911       H  0.67388321  0.23496095  0.96385945     0.15000
H2912       H  0.70720789  0.33457812  0.94837258     0.14800
C2913       C  0.92842873  0.12401211  0.85525438    -0.18100
C2914       C  0.93419932  0.12352335  0.87715748    -0.20300
C2915       C  0.91393419  0.12858693  0.89224276     0.20400
C2916       C  0.88733556  0.13235770  0.88512450    -0.03200
C2917       C  0.88147914  0.13261366  0.86301520    -0.06300
C2918       C  0.90227241  0.12941224  0.84805120     0.20700
C2919       C  0.85511013  0.13847226  0.85590829     0.18800
C2920       C  0.83470853  0.14244870  0.87097931    -0.17700
C2921       C  0.84052152  0.14234874  0.89285474    -0.20000
C2922       C  0.86682206  0.13818946  0.90002637     0.20300
C2923       C  0.87319484  0.14213779  0.92170022    -0.33000
C2924       C  0.89978048  0.14061567  0.92874779     0.01000
C2925       C  0.91997938  0.13233925  0.91413752    -0.24300
C2926       C  0.89683643  0.13417007  0.82626357    -0.28900
C2927       C  0.87094120  0.14207950  0.81925314     0.06700
C2928       C  0.84995291  0.14276320  0.83397622    -0.27600
H2929       H  0.94458895  0.12136357  0.84393271     0.11400
H2930       H  0.95467651  0.12048001  0.88227307     0.12500
H2931       H  0.81439242  0.14691271  0.86584419     0.11600
H2932       H  0.82455611  0.14673910  0.90415492     0.10800
H2933       H  0.85762738  0.14868605  0.93300420     0.16200
H2934       H  0.94050128  0.13169337  0.91950456     0.12100
H2935       H  0.91306685  0.13422938  0.81486234     0.15000
H2936       H  0.83013086  0.14969245  0.82859730     0.14800
C2937       C  0.79754039  0.03969106  0.04538199    -0.18100
C2938       C  0.77682770  0.01534689  0.04458338    -0.20300
C2939       C  0.77308148  0.99443193  0.02640385     0.20400
C2940       C  0.79111312  0.99728123  0.00918120    -0.03200
C2941       C  0.81218224  0.02179476  0.01004784    -0.06300
C2942       C  0.81503108  0.04355319  0.02806130     0.20700
C2943       C  0.82964883  0.02554200  0.99252930     0.18800
C2944       C  0.82624324  0.00406424  0.97453844    -0.17700
C2945       C  0.80521906  0.98015480  0.97356428    -0.20000
C2946       C  0.78725696  0.97700420  0.99062532     0.20300
C2947       C  0.76460026  0.95565147  0.98891010    -0.33000
C2948       C  0.74576969  0.95402942  0.00553537     0.01000
C2949       C  0.75070313  0.97246353  0.02457994    -0.24300
C2950       C  0.83464709  0.06963367  0.02815070    -0.28900
C2951       C  0.85173097  0.07443568  0.01051079     0.06700
C2952       C  0.84948829  0.05154281  0.99296165    -0.27600
H2953       H  0.79950817  0.05608606  0.05939990     0.11400
H2954       H  0.76325294  0.01360213  0.05796243     0.12500
H2955       H  0.83942478  0.00640896  0.96094445     0.11600
H2956       H  0.80261787  0.96471254  0.95920589     0.10800
H2957       H  0.76060625  0.94207235  0.97403183     0.16200
H2958       H  0.73593041  0.97212651  0.03717872     0.12100
H2959       H  0.83617277  0.08685731  0.04183508     0.15000
H2960       H  0.86229361  0.05502520  0.97922125     0.14800
C2961       C  0.02111933  0.28952850  0.95728625    -0.18100
C2962       C  0.04316351  0.31154326  0.95924454    -0.20300
C2963       C  0.06150890  0.30717141  0.97596335     0.20400
C2964       C  0.05777842  0.27986027  0.99066573    -0.03200
C2965       C  0.03534767  0.25759142  0.98871551    -0.06300
C2966       C  0.01687061  0.26275135  0.97205796     0.20700
C2967       C  0.03097293  0.23094935  0.00377525     0.18800
C2968       C  0.04954674  0.22644615  0.02038344    -0.17700
C2969       C  0.07172606  0.24849735  0.02233572    -0.20000
C2970       C  0.07591762  0.27556644  0.00771049     0.20300
C2971       C  0.09729969  0.29913530  0.01021172    -0.33000
C2972       C  0.10080661  0.32681169  0.99580514     0.01000
C2973       C  0.08293991  0.33037448  0.97863259    -0.24300
C2974       C  0.99392091  0.24198912  0.97084290    -0.28900
C2975       C  0.98854997  0.21618219  0.98622904     0.06700
C2976       C  0.00767146  0.21026459  0.00240243    -0.27600
H2977       H  0.00708585  0.29387702  0.94439787     0.11400
H2978       H  0.04564745  0.33235684  0.94783063     0.12500
H2979       H  0.04667876  0.20621182  0.03212360     0.11600
H2980       H  0.08540485  0.24469627  0.03552944     0.10800
H2981       H  0.11058448  0.29681617  0.02380843     0.16200
H2982       H  0.08511953  0.35214856  0.96784983     0.12100
H2983       H  0.97962683  0.24691811  0.95821064     0.15000
H2984       H  0.00384780  0.19080550  0.01446632     0.14800
C2985       C  0.92680348  0.41024823  0.03724612    -0.18100
C2986       C  0.92937073  0.37418745  0.03590605    -0.20300
C2987       C  0.90708289  0.35333701  0.03165531     0.20400
C2988       C  0.88174018  0.36885100  0.02960283    -0.03200
C2989       C  0.87925203  0.40528287  0.03044541    -0.06300
C2990       C  0.90198936  0.42606773  0.03396055     0.20700
C2991       C  0.85433672  0.42093724  0.02647944     0.18800
C2992       C  0.83183882  0.40002820  0.02310081    -0.17700
C2993       C  0.83418568  0.36388010  0.02275500    -0.20000
C2994       C  0.85912633  0.34811486  0.02551111     0.20300
C2995       C  0.86208934  0.31216613  0.02313411    -0.33000
C2996       C  0.88747371  0.29694994  0.02385010     0.01000
C2997       C  0.90984565  0.31748725  0.02841596    -0.24300
C2998       C  0.89989453  0.46224942  0.03257854    -0.28900
C2999       C  0.87567464  0.47774265  0.02667247     0.06700
C3000       C  0.85273437  0.45710070  0.02453328    -0.27600
H3001       H  0.94443286  0.42584962  0.03998442     0.11400
H3002       H  0.94891081  0.36266513  0.03768712     0.12500
H3003       H  0.81255684  0.41164977  0.02012724     0.11600
H3004       H  0.81665120  0.34830111  0.01958756     0.10800
H3005       H  0.84490643  0.29632283  0.01919046     0.16200
H3006       H  0.92941709  0.30566223  0.02883661     0.12100
H3007       H  0.91765778  0.47805398  0.03410320     0.15000
H3008       H  0.83397622  0.46903566  0.02012644     0.14800
loop_ 
_geom_bond_atom_site_label_1 
_geom_bond_atom_site_label_2 
_geom_bond_distance 
_geom_bond_site_symmetry_2 
_ccdc_geom_bond_type 
Fe1          O17   2.051   1_556  S
Fe1           O7   2.067       .  S
Fe1          O14   2.074       .  S
Fe1           O6   2.033       .  S
Fe1          O12   1.943       .  S
Fe2           O5   2.055       .  S
Fe2           O9   2.089       .  S
Fe2          O13   2.060   1_554  S
Fe2          O18   2.078       .  S
Fe2          O12   1.945   1_554  S
Fe3          O21   2.109   1_556  S
Fe3           O8   2.100       .  S
Fe3          O15   2.113       .  S
Fe3           O4   2.117       .  S
Fe3          O12   1.953       .  S
O4           C11   1.280       .  A
O5           C19   1.272       .  A
O6           C11   1.266       .  A
O7           C10   1.269       .  A
O8           C20   1.275   1_556  A
O9           C22   1.272       .  A
C10          O15   1.277       .  A
C10        C2975   1.504       .  S
C11        C2924   1.476       .  S
O13          C16   1.269       .  A
O14          C16   1.271       .  A
C16        C2900   1.476       .  S
O17          C22   1.266       .  A
O18          C20   1.271       .  A
C19          O21   1.280       .  A
C19        C2879   1.481       .  S
C20        C2951   1.499       .  S
C22        C2996   1.469       .  S
Fe23         O39   2.042       .  S
Fe23         O29   2.068       .  S
Fe23         O36   2.068       .  S
Fe23         O28   2.032       .  S
Fe23         O34   1.933       .  S
Fe24         O27   2.046       .  S
Fe24         O31   2.095       .  S
Fe24         O35   2.054       .  S
Fe24         O40   2.076       .  S
Fe24         O34   1.941       .  S
Fe25         O43   2.108       .  S
Fe25         O30   2.100       .  S
Fe25         O37   2.117       .  S
Fe25         O26   2.115       .  S
Fe25         O34   1.944       .  S
O26          C33   1.279       .  A
O27          C41   1.268       .  A
O28          C33   1.265       .  A
O29          C32   1.269       .  A
O30          C42   1.276       .  A
O31          C44   1.274       .  A
C32          O37   1.279       .  A
C32        C2783   1.507       .  S
C33        C2927   1.470       .  S
O35          C38   1.266       .  A
O36          C38   1.269       .  A
C38        C2852   1.472       .  S
O39          C44   1.267       .  A
O40          C42   1.272       .  A
C41          O43   1.280       .  A
C41        C2756   1.476       .  S
C42        C2828   1.499       .  S
C44        C2807   1.471       .  S
Fe45         O61   2.040   1_556  S
Fe45         O51   2.061       .  S
Fe45         O58   2.097       .  S
Fe45         O50   2.016       .  S
Fe45         O56   1.952       .  S
Fe46         O49   2.021       .  S
Fe46         O53   2.116       .  S
Fe46         O57   2.035   1_554  S
Fe46         O62   2.080       .  S
Fe46         O56   1.923   1_554  S
Fe47         O65   2.140   1_556  S
Fe47         O52   2.095       .  S
Fe47         O59   2.100   1_556  S
Fe47         O48   2.142       .  S
Fe47         O56   1.949       .  S
O48          C55   1.290       .  A
O49          C63   1.267       .  A
O50          C55   1.269       .  A
O51          C54   1.264       .  A
O52          C64   1.274       .  A
O53          C66   1.280       .  A
C54          O59   1.273   1_556  A
C54        C2684   1.479   1_556  S
C55        C2636   1.479       .  S
O57          C60   1.259       .  A
O58          C60   1.269       .  A
C60        C2903   1.469       .  S
O61          C66   1.267       .  A
O62          C64   1.271   1_554  A
C63          O65   1.286       .  A
C63        C2660   1.495       .  S
C64        C2735   1.489       .  S
C66        C2711   1.484       .  S
Fe67         O83   2.040       .  S
Fe67         O73   2.074       .  S
Fe67         O80   2.094       .  S
Fe67         O72   2.032       .  S
Fe67         O78   1.946       .  S
Fe68         O71   2.031       .  S
Fe68         O75   2.097       .  S
Fe68         O79   2.038       .  S
Fe68         O84   2.066       .  S
Fe68         O78   1.947       .  S
Fe69         O87   2.129       .  S
Fe69         O74   2.096       .  S
Fe69         O81   2.105       .  S
Fe69         O70   2.123       .  S
Fe69         O78   1.949       .  S
O70          C77   1.283       .  A
O71          C85   1.267       .  A
O72          C77   1.268       .  A
O73          C76   1.269       .  A
O74          C86   1.273       .  A
O75          C88   1.273       .  A
C76          O81   1.276       .  A
C76        C2567   1.489       .  S
C77        C2519   1.491       .  S
O79          C82   1.264       .  A
O80          C82   1.273       .  A
C82        C2612   1.472       .  S
O83          C88   1.266       .  A
O84          C86   1.267       .  A
C85          O87   1.284       .  A
C85        C2663   1.473       .  S
C86        C2540   1.483       .  S
C88        C2588   1.477       .  S
Fe89        O105   2.048       .  S
Fe89         O95   2.071       .  S
Fe89        O102   2.075       .  S
Fe89         O94   2.037       .  S
Fe89        O100   1.940       .  S
Fe90         O93   2.043       .  S
Fe90         O97   2.085       .  S
Fe90        O101   2.056       .  S
Fe90        O106   2.071       .  S
Fe90        O100   1.937       .  S
Fe91        O109   2.141       .  S
Fe91         O96   2.089       .  S
Fe91        O103   2.111       .  S
Fe91         O92   2.158       .  S
Fe91        O100   1.939       .  S
O92          C99   1.289       .  A
O93         C107   1.268       .  A
O94          C99   1.266       .  A
O95          C98   1.269       .  A
O96         C108   1.275       .  A
O97         C110   1.274       .  A
C98         O103   1.275       .  A
C98        C2420   1.506       .  S
C99        C2492   1.494       .  S
O101        C104   1.266       .  A
O102        C104   1.270       .  A
C104       C2615   1.470       .  S
O105        C110   1.268       .  A
O106        C108   1.270       .  A
C107        O109   1.286       .  A
C107       C2399   1.499       .  S
C108       C2471   1.488       .  S
C110       C2444   1.473       .  S
Fe111       O127   2.055       .  S
Fe111       O117   2.066       .  S
Fe111       O124   2.067       .  S
Fe111       O116   2.043       .  S
Fe111       O122   1.933       .  S
Fe112       O115   2.046       .  S
Fe112       O119   2.096       .  S
Fe112       O123   2.056       .  S
Fe112       O128   2.087       .  S
Fe112       O122   1.936       .  S
Fe113       O131   2.130       .  S
Fe113       O118   2.091       .  S
Fe113       O125   2.118       .  S
Fe113       O114   2.153       .  S
Fe113       O122   1.938       .  S
O114        C121   1.287       .  A
O115        C129   1.268       .  A
O116        C121   1.267       .  A
O117        C120   1.268       .  A
O118        C130   1.277       .  A
O119        C132   1.275       .  A
C120        O125   1.276       .  A
C120       C2327   1.506       .  S
C121       C2495   1.497       .  S
O123        C126   1.267       .  A
O124        C126   1.270       .  A
C126       C2372   1.473       .  S
O127        C132   1.268       .  A
O128        C130   1.273       .  A
C129        O131   1.283       .  A
C129       C2279   1.486       .  S
C130       C2303   1.492       .  S
C132       C2351   1.473       .  S
Fe133       O149   2.038       .  S
Fe133       O139   2.054       .  S
Fe133       O146   2.080       .  S
Fe133       O138   2.032       .  S
Fe133       O144   1.960       .  S
Fe134       O137   2.035       .  S
Fe134       O141   2.107       .  S
Fe134       O145   2.036       .  S
Fe134       O150   2.065       .  S
Fe134       O144   1.941       .  S
Fe135       O153   2.114       .  S
Fe135       O140   2.113       .  S
Fe135       O147   2.117       .  S
Fe135       O136   2.125       .  S
Fe135       O144   1.954       .  S
O136        C143   1.285       .  A
O137        C151   1.268       .  A
O138        C143   1.270       .  A
O139        C142   1.262       .  A
O140        C152   1.278       .  A
O141        C154   1.279       .  A
C142        O147   1.276       .  A
C142       C2207   1.489       .  S
C143       C2156   1.470       .  S
O145        C148   1.258       .  A
O146        C148   1.264       .  A
C148       C2855   1.463       .  S
O149        C154   1.270       .  A
O150        C152   1.269       .  A
C151        O153   1.280       .  A
C151       C2255   1.481       .  S
C152       C2183   1.492       .  S
C154       C2228   1.482       .  S
Fe155       O171   2.047       .  S
Fe155       O161   2.060       .  S
Fe155       O168   2.086       .  S
Fe155       O160   2.033       .  S
Fe155       O166   1.950       .  S
Fe156       O159   2.023       .  S
Fe156       O163   2.086       .  S
Fe156       O167   2.042       .  S
Fe156       O172   2.072       .  S
Fe156       O166   1.933       .  S
Fe157       O175   2.129       .  S
Fe157       O162   2.104       .  S
Fe157       O169   2.101       .  S
Fe157       O158   2.133       .  S
Fe157       O166   1.942       .  S
O158        C165   1.287       .  A
O159        C173   1.266       .  A
O160        C165   1.270       .  A
O161        C164   1.264       .  A
O162        C174   1.276       .  A
O163        C176   1.274       .  A
C164        O169   1.274       .  A
C164       C2087   1.478       .  S
C165       C2060   1.488       .  S
O167        C170   1.264       .  A
O168        C170   1.269       .  A
C170       C2375   1.464       .  S
O171        C176   1.267       .  A
O172        C174   1.269       .  A
C173        O175   1.283       .  A
C173       C2252   1.476       .  S
C174       C2132   1.489       .  S
C176       C2111   1.473       .  S
Fe177       O193   2.043       .  S
Fe177       O183   2.060       .  S
Fe177       O190   2.084       .  S
Fe177       O182   2.033       .  S
Fe177       O188   1.952       .  S
Fe178       O181   2.035       .  S
Fe178       O185   2.097       .  S
Fe178       O189   2.039       .  S
Fe178       O194   2.055       .  S
Fe178       O188   1.942       .  S
Fe179       O197   2.114       .  S
Fe179       O184   2.102       .  S
Fe179       O191   2.106       .  S
Fe179       O180   2.124       .  S
Fe179       O188   1.958       .  S
O180        C187   1.284       .  A
O181        C195   1.268       .  A
O182        C187   1.268       .  A
O183        C186   1.265       .  A
O184        C196   1.275       .  A
O185        C198   1.274       .  A
C186        O191   1.275       .  A
C186       C1940   1.483       .  S
C187       C1916   1.491       .  S
O189        C192   1.262       .  A
O190        C192   1.269       .  A
C192       C1991   1.464       .  S
O193        C198   1.266       .  A
O194        C196   1.267       .  A
C195        O197   1.280       .  A
C195       C2012   1.470       .  S
C196       C2036   1.487       .  S
C198       C1964   1.479       .  S
Fe199       O215   2.040       .  S
Fe199       O205   2.062       .  S
Fe199       O212   2.081       .  S
Fe199       O204   2.017       .  S
Fe199       O210   1.949       .  S
Fe200       O203   2.024       .  S
Fe200       O207   2.104       .  S
Fe200       O211   2.037       .  S
Fe200       O216   2.075       .  S
Fe200       O210   1.930       .  S
Fe201       O219   2.134       .  S
Fe201       O206   2.094       .  S
Fe201       O213   2.113       .  S
Fe201       O202   2.131       .  S
Fe201       O210   1.939       .  S
O202        C209   1.286       .  A
O203        C217   1.268       .  A
O204        C209   1.267       .  A
O205        C208   1.264       .  A
O206        C218   1.273       .  A
O207        C220   1.277       .  A
C208        O213   1.276       .  A
C208       C1868   1.485       .  S
C209       C1796   1.472       .  S
O211        C214   1.261       .  A
O212        C214   1.268       .  A
C214       C1844   1.462       .  S
O215        C220   1.267       .  A
O216        C218   1.268       .  A
C217        O219   1.285       .  A
C217       C2015   1.486       .  S
C218       C1820   1.482       .  S
C220       C1892   1.477       .  S
Fe221       O237   2.044   1_556  S
Fe221       O227   2.057       .  S
Fe221       O234   2.067       .  S
Fe221       O226   2.020       .  S
Fe221       O232   1.937   1_556  S
Fe222       O225   2.051       .  S
Fe222       O229   2.100       .  S
Fe222       O233   2.059       .  S
Fe222       O238   2.075       .  S
Fe222       O232   1.940       .  S
Fe223       O241   2.117       .  S
Fe223       O228   2.092       .  S
Fe223       O235   2.110   1_554  S
Fe223       O224   2.128   1_554  S
Fe223       O232   1.948       .  S
O224        C231   1.282       .  A
O225        C239   1.273       .  A
O226        C231   1.264       .  A
O227        C230   1.267       .  A
O228        C240   1.273       .  A
O229        C242   1.274       .  A
C230        O235   1.276       .  A
C230       C1751   1.497       .  S
C231       C1724   1.480       .  S
O233        C236   1.268   1_554  A
O234        C236   1.269       .  A
C236       C1703   1.472       .  S
O237        C242   1.265       .  A
O238        C240   1.270       .  A
C239        O241   1.283       .  A
C239       C1652   1.484       .  S
C240       C1676   1.498       .  S
C242       C1772   1.477       .  S
Fe243       O259   2.054       .  S
Fe243       O249   2.080       .  S
Fe243       O256   2.085       .  S
Fe243       O248   2.042       .  S
Fe243       O254   1.939       .  S
Fe244       O247   2.050       .  S
Fe244       O251   2.081       .  S
Fe244       O255   2.046       .  S
Fe244       O260   2.076       .  S
Fe244       O254   1.934       .  S
Fe245       O263   2.117       .  S
Fe245       O250   2.097       .  S
Fe245       O257   2.103       .  S
Fe245       O246   2.114       .  S
Fe245       O254   1.944       .  S
O246        C253   1.277       .  A
O247        C261   1.267       .  A
O248        C253   1.265       .  A
O249        C252   1.274       .  A
O250        C262   1.276       .  A
O251        C264   1.272       .  A
C252        O257   1.279       .  A
C252       C1604   1.499       .  S
C253       C1727   1.473       .  S
O255        C258   1.267       .  A
O256        C258   1.272       .  A
C258       C1988   1.474       .  S
O259        C264   1.268       .  A
O260        C262   1.273       .  A
C261        O263   1.279       .  A
C261       C1556   1.485       .  S
C262       C1580   1.498       .  S
C264       C1628   1.474       .  S
Fe265       O281   2.037   1_556  S
Fe265       O271   2.048       .  S
Fe265       O278   2.077       .  S
Fe265       O270   2.011       .  S
Fe265       O276   1.956       .  S
Fe266       O269   2.033       .  S
Fe266       O273   2.108       .  S
Fe266       O277   2.045   1_554  S
Fe266       O282   2.063       .  S
Fe266       O276   1.935   1_554  S
Fe267       O285   2.141       .  S
Fe267       O272   2.097   1_554  S
Fe267       O279   2.114       .  S
Fe267       O268   2.148   1_554  S
Fe267       O276   1.959   1_554  S
O268        C275   1.292       .  A
O269        C283   1.270       .  A
O270        C275   1.269       .  A
O271        C274   1.259   1_556  A
O272        C284   1.272       .  A
O273        C286   1.280       .  A
C274        O279   1.274       .  A
C274       C1460   1.486       .  S
C275       C1436   1.492       .  S
O277        C280   1.260       .  A
O278        C280   1.263       .  A
C280       C1700   1.467       .  S
O281        C286   1.269       .  A
O282        C284   1.267   1_554  A
C283        O285   1.288       .  A
C283       C1508   1.503       .  S
C284       C1532   1.485       .  S
C286       C1484   1.479       .  S
Fe287       O303   2.041       .  S
Fe287       O293   2.072       .  S
Fe287       O300   2.093       .  S
Fe287       O292   2.031       .  S
Fe287       O298   1.949       .  S
Fe288       O291   2.031       .  S
Fe288       O295   2.096       .  S
Fe288       O299   2.038       .  S
Fe288       O304   2.082       .  S
Fe288       O298   1.941       .  S
Fe289       O307   2.134       .  S
Fe289       O294   2.098       .  S
Fe289       O301   2.098       .  S
Fe289       O290   2.135       .  S
Fe289       O298   1.941       .  S
O290        C297   1.286       .  A
O291        C305   1.266       .  A
O292        C297   1.267       .  A
O293        C296   1.268       .  A
O294        C306   1.276       .  A
O295        C308   1.274       .  A
C296        O301   1.275       .  A
C296       C1388   1.482       .  S
C297       C1316   1.492       .  S
O299        C302   1.265       .  A
O300        C302   1.273       .  A
C302       C1367   1.467       .  S
O303        C308   1.264       .  A
O304        C306   1.270       .  A
C305        O307   1.284       .  A
C305       C1511   1.476       .  S
C306       C1340   1.487       .  S
C308       C1412   1.476       .  S
Fe309       O325   2.056       .  S
Fe309       O315   2.073       .  S
Fe309       O322   2.089       .  S
Fe309       O314   2.037       .  S
Fe309       O320   1.948       .  S
Fe310       O313   2.044       .  S
Fe310       O317   2.080       .  S
Fe310       O321   2.047       .  S
Fe310       O326   2.079       .  S
Fe310       O320   1.943       .  S
Fe311       O329   2.130       .  S
Fe311       O316   2.095       .  S
Fe311       O323   2.095       .  S
Fe311       O312   2.133       .  S
Fe311       O320   1.951       .  S
O312        C319   1.282       .  A
O313        C327   1.269       .  A
O314        C319   1.266       .  A
O315        C318   1.270       .  A
O316        C328   1.274       .  A
O317        C330   1.269       .  A
C318        O323   1.275       .  A
C318       C1220   1.488       .  S
C319       C1268   1.486       .  S
O321        C324   1.269       .  A
O322        C324   1.275       .  A
C324       C1364   1.474       .  S
O325        C330   1.266       .  A
O326        C328   1.270       .  A
C327        O329   1.284       .  A
C327       C1196   1.487       .  S
C328       C1292   1.497       .  S
C330       C1247   1.473       .  S
Fe331       O347   2.051       .  S
Fe331       O337   2.078       .  S
Fe331       O344   2.070       .  S
Fe331       O336   2.038       .  S
Fe331       O342   1.936       .  S
Fe332       O335   2.043       .  S
Fe332       O339   2.092       .  S
Fe332       O343   2.051       .  S
Fe332       O348   2.085       .  S
Fe332       O342   1.941       .  S
Fe333       O351   2.109       .  S
Fe333       O338   2.082       .  S
Fe333       O345   2.091       .  S
Fe333       O334   2.121       .  S
Fe333       O342   1.941       .  S
O334        C341   1.281       .  A
O335        C349   1.269       .  A
O336        C341   1.266       .  A
O337        C340   1.269       .  A
O338        C350   1.272       .  A
O339        C352   1.272       .  A
C340        O345   1.272       .  A
C340       C1124   1.488       .  S
C341       C1271   1.477       .  S
O343        C346   1.269       .  A
O344        C346   1.272       .  A
C346       C1847   1.470       .  S
O347        C352   1.267       .  A
O348        C350   1.272       .  A
C349        O351   1.280       .  A
C349       C1100   1.477       .  S
C350       C1175   1.490       .  S
C352       C1148   1.469       .  S
Fe353       O369   2.057       .  S
Fe353       O359   2.075       .  S
Fe353       O366   2.079       .  S
Fe353       O358   2.039       .  S
Fe353       O364   1.941       .  S
Fe354       O357   2.032       .  S
Fe354       O361   2.086       .  S
Fe354       O365   2.045       .  S
Fe354       O370   2.074       .  S
Fe354       O364   1.937       .  S
Fe355       O373   2.120       .  S
Fe355       O360   2.084       .  S
Fe355       O367   2.095       .  S
Fe355       O356   2.127       .  S
Fe355       O364   1.946       .  S
O356        C363   1.282       .  A
O357        C371   1.267       .  A
O358        C363   1.267       .  A
O359        C362   1.270       .  A
O360        C372   1.273       .  A
O361        C374   1.272       .  A
C362        O367   1.274       .  A
C362       C1823   1.492       .  S
C363       C1079   1.481       .  S
O365        C368   1.266       .  A
O366        C368   1.271       .  A
C368       C1052   1.467       .  S
O369        C374   1.268       .  A
O370        C372   1.270       .  A
C371        O373   1.282       .  A
C371       C2759   1.481       .  S
C372       C2084   1.493       .  S
C374       C1151   1.477   1_545  S
Fe375       O391   2.055       .  S
Fe375       O381   2.063       .  S
Fe375       O388   2.073       .  S
Fe375       O380   2.045       .  S
Fe375       O386   1.948       .  S
Fe376       O379   2.045       .  S
Fe376       O383   2.080       .  S
Fe376       O387   2.050       .  S
Fe376       O392   2.072       .  S
Fe376       O386   1.950       .  S
Fe377       O395   2.119       .  S
Fe377       O382   2.107       .  S
Fe377       O389   2.118       .  S
Fe377       O378   2.125       .  S
Fe377       O386   1.954       .  S
O378        C385   1.281       .  A
O379        C393   1.271       .  A
O380        C385   1.267       .  A
O381        C384   1.268       .  A
O382        C394   1.275       .  A
O383        C396   1.268       .  A
C384        O389   1.278       .  A
C384       C1343   1.503       .  S
C385       C1076   1.484       .  S
O387        C390   1.269       .  A
O388        C390   1.271       .  A
C390       C1028   1.472       .  S
O391        C396   1.267       .  A
O392        C394   1.267       .  A
C393        O395   1.283       .  A
C393       C2876   1.482       .  S
C394       C2564   1.499       .  S
C396       C1244   1.471   1_545  S
Fe397       O413   2.045   1_565  S
Fe397       O403   2.056       .  S
Fe397       O410   2.091       .  S
Fe397       O402   2.031       .  S
Fe397       O408   1.962       .  S
Fe398       O401   2.029       .  S
Fe398       O405   2.100       .  S
Fe398       O409   2.043       .  S
Fe398       O414   2.066       .  S
Fe398       O408   1.941       .  S
Fe399       O417   2.117       .  S
Fe399       O404   2.097       .  S
Fe399       O411   2.103       .  S
Fe399       O400   2.119       .  S
Fe399       O408   1.955       .  S
O400        C407   1.287       .  A
O401        C415   1.269       .  A
O402        C407   1.271       .  A
O403        C406   1.262       .  A
O404        C416   1.273       .  A
O405        C418   1.277   1_565  A
C406        O411   1.272       .  A
C406       C2831   1.482       .  S
C407       C1439   1.479       .  S
O409        C412   1.261       .  A
O410        C412   1.268       .  A
C412        C983   1.471   1_565  S
O413        C418   1.268       .  A
O414        C416   1.266       .  A
C415        O417   1.283       .  A
C415       C1007   1.480       .  S
C416       C1607   1.484       .  S
C418       C2231   1.476       .  S
Fe419       O435   2.042   1_565  S
Fe419       O425   2.061       .  S
Fe419       O432   2.087       .  S
Fe419       O424   2.032       .  S
Fe419       O430   1.944       .  S
Fe420       O423   2.030       .  S
Fe420       O427   2.086       .  S
Fe420       O431   2.039       .  S
Fe420       O436   2.066       .  S
Fe420       O430   1.943       .  S
Fe421       O439   2.120       .  S
Fe421       O426   2.102       .  S
Fe421       O433   2.112       .  S
Fe421       O422   2.123       .  S
Fe421       O430   1.945       .  S
O422        C429   1.282       .  A
O423        C437   1.267       .  A
O424        C429   1.268       .  A
O425        C428   1.268       .  A
O426        C438   1.275       .  A
O427        C440   1.271   1_565  A
C428        O433   1.278       .  A
C428       C2300   1.488       .  S
C429       C1319   1.485       .  S
O431        C434   1.265       .  A
O432        C434   1.272       .  A
C434       C1055   1.466       .  S
O435        C440   1.265       .  A
O436        C438   1.266       .  A
C437        O439   1.281       .  A
C437       C1004   1.470       .  S
C438       C1127   1.484       .  S
C440       C2108   1.474       .  S
Fe441       O457   2.042   1_566  S
Fe441       O447   2.058       .  S
Fe441       O454   2.090       .  S
Fe441       O446   2.021       .  S
Fe441       O452   1.955       .  S
Fe442       O445   2.025       .  S
Fe442       O449   2.114       .  S
Fe442       O453   2.037   1_554  S
Fe442       O458   2.071       .  S
Fe442       O452   1.930   1_554  S
Fe443       O461   2.133       .  S
Fe443       O448   2.091   1_554  S
Fe443       O455   2.108       .  S
Fe443       O444   2.136   1_554  S
Fe443       O452   1.951   1_554  S
O444        C451   1.289       .  A
O445        C459   1.269       .  A
O446        C451   1.270       .  A
O447        C450   1.263   1_556  A
O448        C460   1.272       .  A
O449        C462   1.280   1_565  A
C450        O455   1.274       .  A
C450       C2948   1.484       .  S
C451       C1919   1.476       .  S
O453        C456   1.258       .  A
O454        C456   1.267       .  A
C456        C932   1.467       .  S
O457        C462   1.269       .  A
O458        C460   1.268   1_554  A
C459        O461   1.286       .  A
C459        C959   1.493       .  S
C460       C1748   1.483       .  S
C462       C2708   1.484       .  S
Fe463       O479   2.038   1_565  S
Fe463       O469   2.062       .  S
Fe463       O476   2.079       .  S
Fe463       O468   2.019       .  S
Fe463       O474   1.940       .  S
Fe464       O467   2.029       .  S
Fe464       O471   2.105       .  S
Fe464       O475   2.046       .  S
Fe464       O480   2.075       .  S
Fe464       O474   1.933       .  S
Fe465       O483   2.121       .  S
Fe465       O470   2.083       .  S
Fe465       O477   2.094       .  S
Fe465       O466   2.132       .  S
Fe465       O474   1.938       .  S
O466        C473   1.286       .  A
O467        C481   1.267       .  A
O468        C473   1.267       .  A
O469        C472   1.264       .  A
O470        C482   1.272       .  A
O471        C484   1.278   1_565  A
C472        O477   1.272       .  A
C472       C2468   1.476       .  S
C473       C1799   1.488       .  S
O475        C478   1.263       .  A
O476        C478   1.269       .  A
C478       C1031   1.464       .  S
O479        C484   1.266       .  A
O480        C482   1.270       .  A
C481        O483   1.282       .  A
C481        C956   1.469       .  S
C482       C1223   1.477       .  S
C484       C2591   1.475       .  S
Fe485       O501   2.050   1_556  S
Fe485       O491   2.066       .  S
Fe485       O498   2.069       .  S
Fe485       O490   2.032       .  S
Fe485       O496   1.933   1_556  S
Fe486       O489   2.061       .  S
Fe486       O493   2.102       .  S
Fe486       O497   2.062       .  S
Fe486       O502   2.089       .  S
Fe486       O496   1.931       .  S
Fe487       O505   2.118   1_556  S
Fe487       O492   2.080       .  S
Fe487       O499   2.105       .  S
Fe487       O488   2.132       .  S
Fe487       O496   1.941   1_556  S
O488        C495   1.282       .  A
O489        C503   1.271       .  A
O490        C495   1.266       .  A
O491        C494   1.268       .  A
O492        C504   1.275   1_556  A
O493        C506   1.278       .  A
C494        O499   1.275       .  A
C494       C1535   1.499       .  S
C495        C911   1.482       .  S
O497        C500   1.268   1_554  A
O498        C500   1.269       .  A
C500        C935   1.475       .  S
O501        C506   1.268       .  A
O502        C504   1.276       .  A
C503        O505   1.280       .  A
C503       C2396   1.486       .  S
C504       C2687   1.492       .  S
C506       C1775   1.472   1_545  S
Fe507       O523   2.051       .  S
Fe507       O513   2.059       .  S
Fe507       O520   2.067       .  S
Fe507       O512   2.032       .  S
Fe507       O518   1.939       .  S
Fe508       O511   2.059       .  S
Fe508       O515   2.091       .  S
Fe508       O519   2.068       .  S
Fe508       O524   2.079       .  S
Fe508       O518   1.945       .  S
Fe509       O527   2.112       .  S
Fe509       O514   2.097       .  S
Fe509       O521   2.108       .  S
Fe509       O510   2.117       .  S
Fe509       O518   1.952       .  S
O510        C517   1.278       .  A
O511        C525   1.272       .  A
O512        C517   1.265       .  A
O513        C516   1.268       .  A
O514        C526   1.276       .  A
O515        C528   1.272       .  A
C516        O521   1.276       .  A
C516       C2039   1.493       .  S
C517        C908   1.472       .  S
O519        C522   1.270       .  A
O520        C522   1.270       .  A
C522        C980   1.479       .  S
O523        C528   1.266       .  A
O524        C526   1.271       .  A
C525        O527   1.280       .  A
C525       C2276   1.488       .  S
C526       C2204   1.494       .  S
C528       C1631   1.468   1_545  S
Fe529       O545   2.036   1_556  S
Fe529       O535   2.058       .  S
Fe529       O542   2.089       .  S
Fe529       O534   2.023       .  S
Fe529       O540   1.947   1_556  S
Fe530       O533   2.023       .  S
Fe530       O537   2.107       .  S
Fe530       O541   2.032   1_554  S
Fe530       O546   2.075       .  S
Fe530       O540   1.939       .  S
Fe531       O549   2.119       .  S
Fe531       O536   2.103   1_554  S
Fe531       O543   2.103       .  S
Fe531       O532   2.135   1_554  S
Fe531       O540   1.949       .  S
O532        C539   1.286       .  A
O533        C547   1.266       .  A
O534        C539   1.268       .  A
O535        C538   1.263   1_556  A
O536        C548   1.276   1_556  A
O537        C550   1.276       .  A
C538        O543   1.274       .  A
C538       C1679   1.480       .  S
C539       C2159   1.485       .  S
O541        C544   1.262       .  A
O542        C544   1.269       .  A
C544        C860   1.466       .  S
O545        C550   1.265       .  A
O546        C548   1.269       .  A
C547        O549   1.282       .  A
C547        C884   1.468       .  S
C548       C2972   1.488   1_554  S
C550       C1487   1.478       .  S
Fe551       O567   2.045       .  S
Fe551       O557   2.044       .  S
Fe551       O564   2.080       .  S
Fe551       O556   2.027       .  S
Fe551       O562   1.955       .  S
Fe552       O555   2.020       .  S
Fe552       O559   2.092       .  S
Fe552       O563   2.040       .  S
Fe552       O568   2.058       .  S
Fe552       O562   1.937       .  S
Fe553       O571   2.131       .  S
Fe553       O558   2.112       .  S
Fe553       O565   2.122       .  S
Fe553       O554   2.138       .  S
Fe553       O562   1.955       .  S
O554        C561   1.290       .  A
O555        C569   1.268       .  A
O556        C561   1.272       .  A
O557        C560   1.260       .  A
O558        C570   1.276       .  A
O559        C572   1.275       .  A
C560        O565   1.276       .  A
C560       C1295   1.488       .  S
C561       C2063   1.490       .  S
O563        C566   1.260       .  A
O564        C566   1.266       .  A
C566        C836   1.463       .  S
O567        C572   1.268       .  A
O568        C570   1.264       .  A
C569        O571   1.286       .  A
C569        C887   1.487       .  S
C570       C2423   1.490       .  S
C572       C1415   1.474       .  S
Fe573       O589   2.049   1_556  S
Fe573       O579   2.059       .  S
Fe573       O586   2.072       .  S
Fe573       O578   2.036       .  S
Fe573       O584   1.946   1_556  S
Fe574       O577   2.050       .  S
Fe574       O581   2.091       .  S
Fe574       O585   2.052       .  S
Fe574       O590   2.075       .  S
Fe574       O584   1.947       .  S
Fe575       O593   2.126       .  S
Fe575       O580   2.108       .  S
Fe575       O587   2.125   1_554  S
Fe575       O576   2.130   1_554  S
Fe575       O584   1.954       .  S
O576        C583   1.282       .  A
O577        C591   1.270       .  A
O578        C583   1.266       .  A
O579        C582   1.268       .  A
O580        C592   1.277       .  A
O581        C594   1.273       .  A
C582        O587   1.279       .  A
C582       C2732   1.507       .  S
C583        C812   1.482       .  S
O585        C588   1.266   1_554  A
O586        C588   1.269       .  A
C588        C863   1.470       .  S
O589        C594   1.267       .  A
O590        C592   1.271       .  A
C591        O593   1.283       .  A
C591       C1199   1.491       .  S
C592       C1463   1.501       .  S
C594       C2999   1.476       .  S
Fe595       O611   2.047       .  S
Fe595       O601   2.065       .  S
Fe595       O608   2.067       .  S
Fe595       O600   2.032       .  S
Fe595       O606   1.934       .  S
Fe596       O599   2.044       .  S
Fe596       O603   2.096       .  S
Fe596       O607   2.055       .  S
Fe596       O612   2.082       .  S
Fe596       O606   1.936       .  S
Fe597       O615   2.116       .  S
Fe597       O602   2.095       .  S
Fe597       O609   2.115       .  S
Fe597       O598   2.136       .  S
Fe597       O606   1.940       .  S
O598        C605   1.285       .  A
O599        C613   1.270       .  A
O600        C605   1.265       .  A
O601        C604   1.268       .  A
O602        C614   1.277       .  A
O603        C616   1.274       .  A
C604        O609   1.276       .  A
C604       C2180   1.506       .  S
C605        C815   1.481       .  S
O607        C610   1.268       .  A
O608        C610   1.269       .  A
C610        C788   1.469       .  S
O611        C616   1.266       .  A
O612        C614   1.272       .  A
C613        O615   1.281       .  A
C613       C1103   1.479       .  S
C614       C1943   1.497       .  S
C616       C2804   1.469       .  S
Fe617       O633   2.042       .  S
Fe617       O623   2.036       .  S
Fe617       O630   2.069       .  S
Fe617       O622   2.030       .  S
Fe617       O628   1.974       .  S
Fe618       O621   2.043       .  S
Fe618       O625   2.093       .  S
Fe618       O629   2.036       .  S
Fe618       O634   2.056       .  S
Fe618       O628   1.964       .  S
Fe619       O637   2.113       .  S
Fe619       O624   2.111       .  S
Fe619       O631   2.109       .  S
Fe619       O620   2.117       .  S
Fe619       O628   1.982       .  S
O620        C627   1.283       .  A
O621        C635   1.269       .  A
O622        C627   1.269       .  A
O623        C626   1.259       .  A
O624        C636   1.275       .  A
O625        C638   1.274       .  A
C626        O631   1.273       .  A
C626       C1583   1.479       .  S
C627       C2639   1.490       .  S
O629        C632   1.262       .  A
O630        C632   1.264       .  A
C632        C791   1.463       .  S
O633        C638   1.266       .  A
O634        C636   1.264       .  A
C635        O637   1.281       .  A
C635        C764   1.481       .  S
C636       C2780   1.490       .  S
C638       C1967   1.477       .  S
Fe639       O655   2.040       .  S
Fe639       O645   2.055       .  S
Fe639       O652   2.083       .  S
Fe639       O644   2.023       .  S
Fe639       O650   1.956       .  S
Fe640       O643   2.034       .  S
Fe640       O647   2.106       .  S
Fe640       O651   2.042       .  S
Fe640       O656   2.060       .  S
Fe640       O650   1.935       .  S
Fe641       O659   2.122       .  S
Fe641       O646   2.103       .  S
Fe641       O653   2.108       .  S
Fe641       O642   2.135       .  S
Fe641       O650   1.953       .  S
O642        C649   1.288       .  A
O643        C657   1.269       .  A
O644        C649   1.270       .  A
O645        C648   1.263       .  A
O646        C658   1.275       .  A
O647        C660   1.279       .  A
C648        O653   1.274       .  A
C648       C1172   1.485       .  S
C649       C2516   1.481       .  S
O651        C654   1.259       .  A
O652        C654   1.266       .  A
C654        C740   1.463       .  S
O655        C660   1.268       .  A
O656        C658   1.268       .  A
C657        O659   1.283       .  A
C657        C767   1.486       .  S
C658       C2324   1.488       .  S
C660       C1895   1.481       .  S
Fe661       O677   2.051       .  S
Fe661       O667   2.077       .  S
Fe661       O674   2.081       .  S
Fe661       O666   2.033       .  S
Fe661       O672   1.954       .  S
Fe662       O665   2.053       .  S
Fe662       O669   2.092       .  S
Fe662       O673   2.041       .  S
Fe662       O678   2.084       .  S
Fe662       O672   1.948       .  S
Fe663       O681   2.118       .  S
Fe663       O668   2.099       .  S
Fe663       O675   2.106       .  S
Fe663       O664   2.127       .  S
Fe663       O672   1.954       .  S
O664        C671   1.280       .  A
O665        C679   1.271       .  A
O666        C671   1.263       .  A
O667        C670   1.270       .  A
O668        C680   1.275       .  A
O669        C682   1.272       .  A
C670        O675   1.277       .  A
C670       C2135   1.493       .  S
C671        C716   1.482       .  S
O673        C676   1.268       .  A
O674        C676   1.273       .  A
C676        C743   1.473       .  S
O677        C682   1.265       .  A
O678        C680   1.271       .  A
C679        O681   1.282       .  A
C679       C1559   1.488       .  S
C680       C1871   1.506       .  S
C682       C2348   1.477       .  S
Fe683       O699   2.050       .  S
Fe683       O689   2.087       .  S
Fe683       O696   2.083       .  S
Fe683       O688   2.035       .  S
Fe683       O694   1.939       .  S
Fe684       O687   2.048       .  S
Fe684       O691   2.091       .  S
Fe684       O695   2.046       .  S
Fe684       O700   2.087       .  S
Fe684       O694   1.945       .  S
Fe685       O703   2.121       .  S
Fe685       O690   2.074       .  S
Fe685       O697   2.082       .  S
Fe685       O686   2.125       .  S
Fe685       O694   1.940       .  S
O686        C693   1.280       .  A
O687        C701   1.270       .  A
O688        C693   1.264       .  A
O689        C692   1.272       .  A
O690        C702   1.270       .  A
O691        C704   1.270       .  A
C692        O697   1.273       .  A
C692       C2543   1.485       .  S
C693        C719   1.481       .  S
O695        C698   1.269       .  A
O696        C698   1.275       .  A
C698        C839   1.474       .  S
O699        C704   1.265       .  A
O700        C702   1.271       .  A
C701        O703   1.283       .  A
C701       C1655   1.481       .  S
C702       C1391   1.488       .  S
C704       C2447   1.468       .  S
C705        C706   1.401       .  A
C705        C710   1.404       .  A
C705        H721   1.083       .  S
C706        C707   1.405       .  A
C706        H722   1.084       .  S
C707        C717   1.405       .  A
C707        C708   1.409       .  A
C708        C714   1.416       .  A
C708        C709   1.418       .  A
C709        C711   1.409       .  A
C709        C710   1.416       .  A
C710        C718   1.412       .  A
C711        C720   1.405       .  A
C711        C712   1.405       .  A
C712        C713   1.402       .  A
C712        H723   1.084       .  S
C713        C714   1.404       .  A
C713        H724   1.083       .  S
C714        C715   1.413       .  A
C715        C716   1.406       .  A
C715        H725   1.084       .  S
C716        C717   1.409       .  A
C717        H726   1.085       .  S
C718        C719   1.405       .  A
C718        H727   1.084       .  S
C719        C720   1.409       .  A
C720        H728   1.085       .  S
C729        C730   1.396       .  A
C729        C734   1.403       .  A
C729        H745   1.084       .  S
C730        C731   1.402       .  A
C730        H746   1.084       .  S
C731        C741   1.398       .  A
C731        C732   1.413       .  A
C732        C738   1.412       .  A
C732        C733   1.408       .  A
C733        C735   1.412       .  A
C733        C734   1.411       .  A
C734        C742   1.397       .  A
C735        C744   1.400       .  A
C735        C736   1.403       .  A
C736        C737   1.397       .  A
C736        H747   1.084       .  S
C737        C738   1.403       .  A
C737        H748   1.084       .  S
C738        C739   1.400       .  A
C739        C740   1.404       .  A
C739        H749   1.085       .  S
C740        C741   1.402       .  A
C741        H750   1.085       .  S
C742        C743   1.406       .  A
C742        H751   1.085       .  S
C743        C744   1.405       .  A
C744        H752   1.084       .  S
C753        C754   1.401       .  A
C753        C758   1.403       .  A
C753        H769   1.083       .  S
C754        C755   1.405       .  A
C754        H770   1.083       .  S
C755        C765   1.403       .  A
C755        C756   1.408       .  A
C756        C762   1.416       .  A
C756        C757   1.415       .  A
C757        C759   1.407       .  A
C757        C758   1.416       .  A
C758        C766   1.412       .  A
C759        C768   1.400       .  A
C759        C760   1.405       .  A
C760        C761   1.400       .  A
C760        H771   1.084       .  S
C761        C762   1.403       .  A
C761        H772   1.084       .  S
C762        C763   1.410       .  A
C763        C764   1.404       .  A
C763        H773   1.084       .  S
C764        C765   1.410       .  A
C765        H774   1.085       .  S
C766        C767   1.405       .  A
C766        H775   1.084       .  S
C767        C768   1.412       .  A
C768        H776   1.085       .  S
C777        C778   1.398       .  A
C777        C782   1.403       .  A
C777        H793   1.084       .  S
C778        C779   1.403       .  A
C778        H794   1.084       .  S
C779        C789   1.401       .  A
C779        C780   1.412       .  A
C780        C786   1.411       .  A
C780        C781   1.407       .  A
C781        C783   1.412       .  A
C781        C782   1.413       .  A
C782        C790   1.401       .  A
C783        C792   1.396       .  A
C783        C784   1.402       .  A
C784        C785   1.395       .  A
C784        H795   1.084       .  S
C785        C786   1.402       .  A
C785        H796   1.084       .  S
C786        C787   1.395       .  A
C787        C788   1.405       .  A
C787        H797   1.085       .  S
C788        C789   1.404       .  A
C789        H798   1.084       .  S
C790        C791   1.403       .  A
C790        H799   1.085       .  S
C791        C792   1.402       .  A
C792        H800   1.085       .  S
C801        C802   1.403       .  A
C801        C806   1.406       .  A
C801        H817   1.084       .  S
C802        C803   1.405       .  A
C802        H818   1.083       .  S
C803        C813   1.414       .  A
C803        C804   1.415       .  A
C804        C810   1.409       .  A
C804        C805   1.418       .  A
C805        C807   1.415       .  A
C805        C806   1.410       .  A
C806        C814   1.407       .  A
C807        C816   1.410       .  A
C807        C808   1.403       .  A
C808        C809   1.400       .  A
C808        H819   1.083       .  S
C809        C810   1.404       .  A
C809        H820   1.084       .  S
C810        C811   1.404       .  A
C811        C812   1.408       .  A
C811        H821   1.085       .  S
C812        C813   1.407       .  A
C813        H822   1.084       .  S
C814        C815   1.410       .  A
C814        H823   1.085       .  S
C815        C816   1.404       .  A
C816        H824   1.084       .  S
C825        C826   1.395       .  A
C825        C830   1.402       .  A
C825        H841   1.084       .  S
C826        C827   1.401       .  A
C826        H842   1.084       .  S
C827        C837   1.397       .  A
C827        C828   1.412       .  A
C828        C834   1.412       .  A
C828        C829   1.407       .  A
C829        C831   1.412       .  A
C829        C830   1.411       .  A
C830        C838   1.396       .  A
C831        C840   1.401       .  A
C831        C832   1.404       .  A
C832        C833   1.398       .  A
C832        H843   1.084       .  S
C833        C834   1.404       .  A
C833        H844   1.084       .  S
C834        C835   1.400       .  A
C835        C836   1.405       .  A
C835        H845   1.085       .  S
C836        C837   1.401       .  A
C837        H846   1.085       .  S
C838        C839   1.404       .  A
C838        H847   1.084       .  S
C839        C840   1.407       .  A
C840        H848   1.084       .  S
C849        C850   1.395   1_655  A
C849        C854   1.402       .  A
C849        H865   1.084       .  S
C850        C851   1.402       .  A
C850        H866   1.084       .  S
C851        C861   1.395       .  A
C851        C852   1.411       .  A
C852        C858   1.413       .  A
C852        C853   1.408       .  A
C853        C855   1.411       .  A
C853        C854   1.413   1_455  A
C854        C862   1.398       .  A
C855        C864   1.400   1_455  A
C855        C856   1.403       .  A
C856        C857   1.398       .  A
C856        H867   1.084       .  S
C857        C858   1.403       .  A
C857        H868   1.084       .  S
C858        C859   1.402       .  A
C859        C860   1.404       .  A
C859        H869   1.085       .  S
C860        C861   1.403       .  A
C861        H870   1.085       .  S
C862        C863   1.403       .  A
C862        H871   1.085       .  S
C863        C864   1.405       .  A
C864        H872   1.085       .  S
C873        C874   1.402       .  A
C873        C878   1.403       .  A
C873        H889   1.083       .  S
C874        C875   1.406       .  A
C874        H890   1.084       .  S
C875        C885   1.402       .  A
C875        C876   1.408       .  A
C876        C882   1.417       .  A
C876        C877   1.413       .  A
C877        C879   1.405       .  A
C877        C878   1.417       .  A
C878        C886   1.414       .  A
C879        C888   1.394       .  A
C879        C880   1.404       .  A
C880        C881   1.397       .  A
C880        H891   1.084       .  S
C881        C882   1.401       .  A
C881        H892   1.084       .  S
C882        C883   1.405       .  A
C883        C884   1.400       .  A
C883        H893   1.085       .  S
C884        C885   1.408       .  A
C885        H894   1.085       .  S
C886        C887   1.406       .  A
C886        H895   1.084       .  S
C887        C888   1.413       .  A
C888        H896   1.085       .  S
C897        C898   1.401       .  A
C897        C902   1.404       .  A
C897        H913   1.083       .  S
C898        C899   1.405       .  A
C898        H914   1.084       .  S
C899        C909   1.403       .  A
C899        C900   1.410       .  A
C900        C906   1.415       .  A
C900        C901   1.415       .  A
C901        C903   1.409       .  A
C901        C902   1.416       .  A
C902        C910   1.411       .  A
C903        C912   1.402       .  A
C903        C904   1.405       .  A
C904        C905   1.400       .  A
C904        H915   1.084       .  S
C905        C906   1.403       .  A
C905        H916   1.084       .  S
C906        C907   1.408       .  A
C907        C908   1.403       .  A
C907        H917   1.084       .  S
C908        C909   1.407       .  A
C909        H918   1.085       .  S
C910        C911   1.405       .  A
C910        H919   1.084       .  S
C911        C912   1.409       .  A
C912        H920   1.085       .  S
C921        C922   1.396       .  A
C921        C926   1.403   1_565  A
C921        H937   1.084       .  S
C922        C923   1.402       .  A
C922        H938   1.084       .  S
C923        C933   1.397       .  A
C923        C924   1.412   1_565  A
C924        C930   1.412       .  A
C924        C925   1.409       .  A
C925        C927   1.412       .  A
C925        C926   1.411       .  A
C926        C934   1.397       .  A
C927        C936   1.403       .  A
C927        C928   1.404       .  A
C928        C929   1.399       .  A
C928        H939   1.084       .  S
C929        C930   1.404       .  A
C929        H940   1.084       .  S
C930        C931   1.401       .  A
C931        C932   1.405   1_545  A
C931        H941   1.085       .  S
C932        C933   1.403       .  A
C933        H942   1.085       .  S
C934        C935   1.406       .  A
C934        H943   1.084       .  S
C935        C936   1.406       .  A
C936        H944   1.084       .  S
C945        C946   1.404       .  A
C945        C950   1.405       .  A
C945        H961   1.083       .  S
C946        C947   1.406       .  A
C946        H962   1.083       .  S
C947        C957   1.406       .  A
C947        C948   1.409       .  A
C948        C954   1.416       .  A
C948        C949   1.414       .  A
C949        C951   1.406       .  A
C949        C950   1.416       .  A
C950        C958   1.416       .  A
C951        C960   1.395       .  A
C951        C952   1.404       .  A
C952        C953   1.396       .  A
C952        H963   1.084       .  S
C953        C954   1.401       .  A
C953        H964   1.084       .  S
C954        C955   1.404       .  A
C955        C956   1.400       .  A
C955        H965   1.085       .  S
C956        C957   1.409       .  A
C957        H966   1.085       .  S
C958        C959   1.408       .  A
C958        H967   1.084       .  S
C959        C960   1.413       .  A
C960        H968   1.084       .  S
C969        C970   1.400       .  A
C969        C974   1.404       .  A
C969        H985   1.084       .  S
C970        C971   1.404       .  A
C970        H986   1.084       .  S
C971        C981   1.405       .  A
C971        C972   1.413       .  A
C972        C978   1.410       .  A
C972        C973   1.410       .  A
C973        C975   1.412       .  A
C973        C974   1.412       .  A
C974        C982   1.403       .  A
C975        C984   1.399   1_545  A
C975        C976   1.402   1_545  A
C976        C977   1.396       .  A
C976        H987   1.084       .  S
C977        C978   1.403   1_565  A
C977        H988   1.084       .  S
C978        C979   1.397       .  A
C979        C980   1.407       .  A
C979        H989   1.084       .  S
C980        C981   1.407       .  A
C981        H990   1.084       .  S
C982        C983   1.406       .  A
C982        H991   1.085       .  S
C983        C984   1.403   1_545  A
C984        H992   1.085       .  S
C993        C994   1.398       .  A
C993        C998   1.405       .  A
C993       H1009   1.084       .  S
C994        C995   1.402       .  A
C994       H1010   1.084       .  S
C995       C1005   1.408       .  A
C995        C996   1.417       .  A
C996       C1002   1.408       .  A
C996        C997   1.412       .  A
C997        C999   1.417       .  A
C997        C998   1.407       .  A
C998       C1006   1.397       .  A
C999       C1008   1.410       .  A
C999       C1000   1.403       .  A
C1000      C1001   1.400       .  A
C1000      H1011   1.083       .  S
C1001      C1002   1.405       .  A
C1001      H1012   1.084       .  S
C1002      C1003   1.400       .  A
C1003      C1004   1.407       .  A
C1003      H1013   1.085       .  S
C1004      C1005   1.401       .  A
C1005      H1014   1.084       .  S
C1006      C1007   1.410       .  A
C1006      H1015   1.085       .  S
C1007      C1008   1.404       .  A
C1008      H1016   1.084       .  S
C1017      C1018   1.396       .  A
C1017      C1022   1.402       .  A
C1017      H1033   1.084       .  S
C1018      C1019   1.402       .  A
C1018      H1034   1.084       .  S
C1019      C1029   1.397       .  A
C1019      C1020   1.412       .  A
C1020      C1026   1.411       .  A
C1020      C1021   1.407       .  A
C1021      C1023   1.412   1_545  A
C1021      C1022   1.412       .  A
C1022      C1030   1.397       .  A
C1023      C1032   1.400       .  A
C1023      C1024   1.403       .  A
C1024      C1025   1.398       .  A
C1024      H1035   1.084       .  S
C1025      C1026   1.403   1_565  A
C1025      H1036   1.084       .  S
C1026      C1027   1.399       .  A
C1027      C1028   1.407       .  A
C1027      H1037   1.084       .  S
C1028      C1029   1.404       .  A
C1029      H1038   1.084       .  S
C1030      C1031   1.402   1_545  A
C1030      H1039   1.085       .  S
C1031      C1032   1.404       .  A
C1032      H1040   1.085       .  S
C1041      C1042   1.396   1_455  A
C1041      C1046   1.402       .  A
C1041      H1057   1.084       .  S
C1042      C1043   1.402   1_565  A
C1042      H1058   1.084       .  S
C1043      C1053   1.397       .  A
C1043      C1044   1.412   1_655  A
C1044      C1050   1.412       .  A
C1044      C1045   1.407       .  A
C1045      C1047   1.412       .  A
C1045      C1046   1.412   1_545  A
C1046      C1054   1.398       .  A
C1047      C1056   1.400       .  A
C1047      C1048   1.403       .  A
C1048      C1049   1.398       .  A
C1048      H1059   1.084       .  S
C1049      C1050   1.403       .  A
C1049      H1060   1.084       .  S
C1050      C1051   1.400   1_455  A
C1051      C1052   1.405       .  A
C1051      H1061   1.085       .  S
C1052      C1053   1.403       .  A
C1053      H1062   1.085       .  S
C1054      C1055   1.404       .  A
C1054      H1063   1.085       .  S
C1055      C1056   1.403   1_565  A
C1056      H1064   1.085       .  S
C1065      C1066   1.402       .  A
C1065      C1070   1.405       .  A
C1065      H1081   1.084       .  S
C1066      C1067   1.404       .  A
C1066      H1082   1.083       .  S
C1067      C1077   1.413       .  A
C1067      C1068   1.415       .  A
C1068      C1074   1.410       .  A
C1068      C1069   1.418       .  A
C1069      C1071   1.415       .  A
C1069      C1070   1.410       .  A
C1070      C1078   1.406       .  A
C1071      C1080   1.411       .  A
C1071      C1072   1.403       .  A
C1072      C1073   1.401       .  A
C1072      H1083   1.083       .  S
C1073      C1074   1.405       .  A
C1073      H1084   1.084       .  S
C1074      C1075   1.405       .  A
C1075      C1076   1.409       .  A
C1075      H1085   1.085       .  S
C1076      C1077   1.406       .  A
C1077      H1086   1.084       .  S
C1078      C1079   1.409       .  A
C1078      H1087   1.085       .  S
C1079      C1080   1.404       .  A
C1080      H1088   1.084       .  S
C1089      C1090   1.399       .  A
C1089      C1094   1.404       .  A
C1089      H1105   1.084       .  S
C1090      C1091   1.403       .  A
C1090      H1106   1.084       .  S
C1091      C1101   1.405       .  A
C1091      C1092   1.414       .  A
C1092      C1098   1.410       .  A
C1092      C1093   1.413       .  A
C1093      C1095   1.414       .  A
C1093      C1094   1.410       .  A
C1094      C1102   1.402       .  A
C1095      C1104   1.407       .  A
C1095      C1096   1.404       .  A
C1096      C1097   1.400       .  A
C1096      H1107   1.084       .  S
C1097      C1098   1.404       .  A
C1097      H1108   1.084       .  S
C1098      C1099   1.403       .  A
C1099      C1100   1.408       .  A
C1099      H1109   1.085       .  S
C1100      C1101   1.404       .  A
C1101      H1110   1.084       .  S
C1102      C1103   1.407       .  A
C1102      H1111   1.085       .  S
C1103      C1104   1.406       .  A
C1104      H1112   1.084       .  S
C1113      C1114   1.402       .  A
C1113      C1118   1.405       .  A
C1113      H1129   1.084       .  S
C1114      C1115   1.405       .  A
C1114      H1130   1.083       .  S
C1115      C1125   1.411       .  A
C1115      C1116   1.413       .  A
C1116      C1122   1.411       .  A
C1116      C1117   1.418       .  A
C1117      C1119   1.414       .  A
C1117      C1118   1.411       .  A
C1118      C1126   1.408       .  A
C1119      C1128   1.411       .  A
C1119      C1120   1.404       .  A
C1120      C1121   1.402       .  A
C1120      H1131   1.083       .  S
C1121      C1122   1.405       .  A
C1121      H1132   1.083       .  S
C1122      C1123   1.408       .  A
C1123      C1124   1.408   1_455  A
C1123      H1133   1.084   1_455  S
C1124      C1125   1.409   1_655  A
C1125      H1134   1.084   1_455  S
C1126      C1127   1.409       .  A
C1126      H1135   1.085       .  S
C1127      C1128   1.406       .  A
C1128      H1136   1.084       .  S
C1137      C1138   1.400       .  A
C1137      C1142   1.404       .  A
C1137      H1153   1.084       .  S
C1138      C1139   1.404       .  A
C1138      H1154   1.084       .  S
C1139      C1149   1.403       .  A
C1139      C1140   1.412       .  A
C1140      C1146   1.413       .  A
C1140      C1141   1.411       .  A
C1141      C1143   1.411       .  A
C1141      C1142   1.412       .  A
C1142      C1150   1.404       .  A
C1143      C1152   1.401       .  A
C1143      C1144   1.403       .  A
C1144      C1145   1.397       .  A
C1144      H1155   1.084       .  S
C1145      C1146   1.402       .  A
C1145      H1156   1.084       .  S
C1146      C1147   1.401       .  A
C1147      C1148   1.402       .  A
C1147      H1157   1.085       .  S
C1148      C1149   1.406       .  A
C1149      H1158   1.085       .  S
C1150      C1151   1.407       .  A
C1150      H1159   1.084       .  S
C1151      C1152   1.406       .  A
C1152      H1160   1.084       .  S
C1161      C1162   1.401       .  A
C1161      C1166   1.404       .  A
C1161      H1177   1.084       .  S
C1162      C1163   1.405       .  A
C1162      H1178   1.084       .  S
C1163      C1173   1.406       .  A
C1163      C1164   1.410       .  A
C1164      C1170   1.414       .  A
C1164      C1165   1.418       .  A
C1165      C1167   1.410       .  A
C1165      C1166   1.414       .  A
C1166      C1174   1.410       .  A
C1167      C1176   1.407       .  A
C1167      C1168   1.405       .  A
C1168      C1169   1.402       .  A
C1168      H1179   1.083       .  S
C1169      C1170   1.404       .  A
C1169      H1180   1.083       .  S
C1170      C1171   1.412       .  A
C1171      C1172   1.406       .  A
C1171      H1181   1.084       .  S
C1172      C1173   1.410       .  A
C1173      H1182   1.085       .  S
C1174      C1175   1.409       .  A
C1174      H1183   1.084       .  S
C1175      C1176   1.410       .  A
C1176      H1184   1.084       .  S
C1185      C1186   1.402       .  A
C1185      C1190   1.404       .  A
C1185      H1201   1.083       .  S
C1186      C1187   1.405       .  A
C1186      H1202   1.084       .  S
C1187      C1197   1.406       .  A
C1187      C1188   1.410       .  A
C1188      C1194   1.414       .  A
C1188      C1189   1.418       .  A
C1189      C1191   1.410       .  A
C1189      C1190   1.414       .  A
C1190      C1198   1.412       .  A
C1191      C1200   1.406       .  A
C1191      C1192   1.405       .  A
C1192      C1193   1.401       .  A
C1192      H1203   1.083       .  S
C1193      C1194   1.404       .  A
C1193      H1204   1.083       .  S
C1194      C1195   1.410       .  A
C1195      C1196   1.406       .  A
C1195      H1205   1.084       .  S
C1196      C1197   1.411       .  A
C1197      H1206   1.085       .  S
C1198      C1199   1.408       .  A
C1198      H1207   1.084       .  S
C1199      C1200   1.411       .  A
C1200      H1208   1.084       .  S
C1209      C1210   1.402       .  A
C1209      C1214   1.405       .  A
C1209      H1225   1.084       .  S
C1210      C1211   1.405       .  A
C1210      H1226   1.083       .  S
C1211      C1221   1.411       .  A
C1211      C1212   1.413       .  A
C1212      C1218   1.411       .  A
C1212      C1213   1.417       .  A
C1213      C1215   1.414       .  A
C1213      C1214   1.411       .  A
C1214      C1222   1.407       .  A
C1215      C1224   1.407       .  A
C1215      C1216   1.403       .  A
C1216      C1217   1.400       .  A
C1216      H1227   1.084       .  S
C1217      C1218   1.404       .  A
C1217      H1228   1.083       .  S
C1218      C1219   1.406       .  A
C1219      C1220   1.408       .  A
C1219      H1229   1.084       .  S
C1220      C1221   1.409       .  A
C1221      H1230   1.084       .  S
C1222      C1223   1.407       .  A
C1222      H1231   1.085       .  S
C1223      C1224   1.404       .  A
C1224      H1232   1.084       .  S
C1233      C1234   1.397       .  A
C1233      C1238   1.403       .  A
C1233      H1249   1.084       .  S
C1234      C1235   1.402       .  A
C1234      H1250   1.084       .  S
C1235      C1245   1.400       .  A
C1235      C1236   1.412       .  A
C1236      C1242   1.412       .  A
C1236      C1237   1.410       .  A
C1237      C1239   1.413       .  A
C1237      C1238   1.411       .  A
C1238      C1246   1.399       .  A
C1239      C1248   1.404       .  A
C1239      C1240   1.404       .  A
C1240      C1241   1.400       .  A
C1240      H1251   1.084       .  S
C1241      C1242   1.404       .  A
C1241      H1252   1.084       .  S
C1242      C1243   1.403       .  A
C1243      C1244   1.406       .  A
C1243      H1253   1.085       .  S
C1244      C1245   1.403       .  A
C1245      H1254   1.085       .  S
C1246      C1247   1.405       .  A
C1246      H1255   1.085       .  S
C1247      C1248   1.405       .  A
C1248      H1256   1.084       .  S
C1257      C1258   1.404       .  A
C1257      C1262   1.406       .  A
C1257      H1273   1.084       .  S
C1258      C1259   1.406       .  A
C1258      H1274   1.083       .  S
C1259      C1269   1.417       .  A
C1259      C1260   1.416       .  A
C1260      C1266   1.409       .  A
C1260      C1261   1.418       .  A
C1261      C1263   1.416       .  A
C1261      C1262   1.410       .  A
C1262      C1270   1.408       .  A
C1263      C1272   1.408       .  A
C1263      C1264   1.402       .  A
C1264      C1265   1.399       .  A
C1264      H1275   1.084       .  S
C1265      C1266   1.404       .  A
C1265      H1276   1.084       .  S
C1266      C1267   1.401       .  A
C1267      C1268   1.407       .  A
C1267      H1277   1.085       .  S
C1268      C1269   1.409       .  A
C1269      H1278   1.084       .  S
C1270      C1271   1.410       .  A
C1270      H1279   1.085       .  S
C1271      C1272   1.402       .  A
C1272      H1280   1.084       .  S
C1281      C1282   1.403       .  A
C1281      C1286   1.405       .  A
C1281      H1297   1.083   1_655  S
C1282      C1283   1.405       .  A
C1282      H1298   1.083       .  S
C1283      C1293   1.408       .  A
C1283      C1284   1.410       .  A
C1284      C1290   1.414       .  A
C1284      C1285   1.421       .  A
C1285      C1287   1.410       .  A
C1285      C1286   1.414       .  A
C1286      C1294   1.414   1_655  A
C1287      C1296   1.409   1_655  A
C1287      C1288   1.406       .  A
C1288      C1289   1.403       .  A
C1288      H1299   1.083       .  S
C1289      C1290   1.405       .  A
C1289      H1300   1.083       .  S
C1290      C1291   1.413       .  A
C1291      C1292   1.410       .  A
C1291      H1301   1.084       .  S
C1292      C1293   1.412       .  A
C1293      H1302   1.084       .  S
C1294      C1295   1.408       .  A
C1294      H1303   1.084       .  S
C1295      C1296   1.411       .  A
C1296      H1304   1.085       .  S
C1305      C1306   1.402       .  A
C1305      C1310   1.404       .  A
C1305      H1321   1.083       .  S
C1306      C1307   1.407       .  A
C1306      H1322   1.083       .  S
C1307      C1317   1.405       .  A
C1307      C1308   1.407       .  A
C1308      C1314   1.415       .  A
C1308      C1309   1.416       .  A
C1309      C1311   1.407       .  A
C1309      C1310   1.416       .  A
C1310      C1318   1.413       .  A
C1311      C1320   1.399       .  A
C1311      C1312   1.404       .  A
C1312      C1313   1.399       .  A
C1312      H1323   1.084       .  S
C1313      C1314   1.402       .  A
C1313      H1324   1.083       .  S
C1314      C1315   1.409       .  A
C1315      C1316   1.405       .  A
C1315      H1325   1.084       .  S
C1316      C1317   1.416       .  A
C1317      H1326   1.084       .  S
C1318      C1319   1.407       .  A
C1318      H1327   1.084       .  S
C1319      C1320   1.409       .  A
C1320      H1328   1.085       .  S
C1329      C1330   1.399       .  A
C1329      C1334   1.404   1_565  A
C1329      H1345   1.084       .  S
C1330      C1331   1.403       .  A
C1330      H1346   1.084       .  S
C1331      C1341   1.408       .  A
C1331      C1332   1.414       .  A
C1332      C1338   1.411       .  A
C1332      C1333   1.421   1_565  A
C1333      C1335   1.414       .  A
C1333      C1334   1.409       .  A
C1334      C1342   1.405       .  A
C1335      C1344   1.420       .  A
C1335      C1336   1.407       .  A
C1336      C1337   1.407       .  A
C1336      H1347   1.083       .  S
C1337      C1338   1.407   1_545  A
C1337      H1348   1.083       .  S
C1338      C1339   1.416       .  A
C1339      C1340   1.412       .  A
C1339      H1349   1.084       .  S
C1340      C1341   1.404       .  A
C1341      H1350   1.085       .  S
C1342      C1343   1.412   1_455  A
C1342      H1351   1.084   1_455  S
C1343      C1344   1.414   1_655  A
C1344      H1352   1.084       .  S
C1353      C1354   1.398       .  A
C1353      C1358   1.403       .  A
C1353      H1369   1.084       .  S
C1354      C1355   1.403   1_455  A
C1354      H1370   1.084       .  S
C1355      C1365   1.400       .  A
C1355      C1356   1.411   1_655  A
C1356      C1362   1.412   1_455  A
C1356      C1357   1.409       .  A
C1357      C1359   1.411       .  A
C1357      C1358   1.413       .  A
C1358      C1366   1.401       .  A
C1359      C1368   1.399       .  A
C1359      C1360   1.403       .  A
C1360      C1361   1.398   1_455  A
C1360      H1371   1.084       .  S
C1361      C1362   1.403       .  A
C1361      H1372   1.084       .  S
C1362      C1363   1.401       .  A
C1363      C1364   1.405       .  A
C1363      H1373   1.084       .  S
C1364      C1365   1.406       .  A
C1365      H1374   1.085       .  S
C1366      C1367   1.403       .  A
C1366      H1375   1.085       .  S
C1367      C1368   1.404       .  A
C1368      H1376   1.085       .  S
C1377      C1378   1.402       .  A
C1377      C1382   1.405       .  A
C1377      H1393   1.083       .  S
C1378      C1379   1.404       .  A
C1378      H1394   1.083       .  S
C1379      C1389   1.409       .  A
C1379      C1380   1.413       .  A
C1380      C1386   1.412       .  A
C1380      C1381   1.417       .  A
C1381      C1383   1.412       .  A
C1381      C1382   1.411       .  A
C1382      C1390   1.408       .  A
C1383      C1392   1.407       .  A
C1383      C1384   1.404       .  A
C1384      C1385   1.401       .  A
C1384      H1395   1.084       .  S
C1385      C1386   1.405       .  A
C1385      H1396   1.083       .  S
C1386      C1387   1.408       .  A
C1387      C1388   1.408       .  A
C1387      H1397   1.084       .  S
C1388      C1389   1.406       .  A
C1389      H1398   1.084       .  S
C1390      C1391   1.410       .  A
C1390      H1399   1.084       .  S
C1391      C1392   1.408       .  A
C1392      H1400   1.084       .  S
C1401      C1402   1.398       .  A
C1401      C1406   1.403       .  A
C1401      H1417   1.084       .  S
C1402      C1403   1.404       .  A
C1402      H1418   1.084       .  S
C1403      C1413   1.400       .  A
C1403      C1404   1.411       .  A
C1404      C1410   1.412       .  A
C1404      C1405   1.410       .  A
C1405      C1407   1.412       .  A
C1405      C1406   1.412       .  A
C1406      C1414   1.400       .  A
C1407      C1416   1.400       .  A
C1407      C1408   1.403       .  A
C1408      C1409   1.397       .  A
C1408      H1419   1.084       .  S
C1409      C1410   1.403       .  A
C1409      H1420   1.084       .  S
C1410      C1411   1.401       .  A
C1411      C1412   1.405       .  A
C1411      H1421   1.084       .  S
C1412      C1413   1.408       .  A
C1413      H1422   1.085       .  S
C1414      C1415   1.406       .  A
C1414      H1423   1.085       .  S
C1415      C1416   1.405       .  A
C1416      H1424   1.085       .  S
C1425      C1426   1.396       .  A
C1425      C1430   1.401       .  A
C1425      H1441   1.084       .  S
C1426      C1427   1.404       .  A
C1426      H1442   1.084       .  S
C1427      C1437   1.394       .  A
C1427      C1428   1.405       .  A
C1428      C1434   1.416       .  A
C1428      C1429   1.413       .  A
C1429      C1431   1.407       .  A
C1429      C1430   1.416       .  A
C1430      C1438   1.403       .  A
C1431      C1440   1.403       .  A
C1431      C1432   1.406       .  A
C1432      C1433   1.402       .  A
C1432      H1443   1.083       .  S
C1433      C1434   1.404       .  A
C1433      H1444   1.083       .  S
C1434      C1435   1.414       .  A
C1435      C1436   1.407       .  A
C1435      H1445   1.084       .  S
C1436      C1437   1.415       .  A
C1437      H1446   1.084       .  S
C1438      C1439   1.402       .  A
C1438      H1447   1.084       .  S
C1439      C1440   1.412       .  A
C1440      H1448   1.084       .  S
C1449      C1450   1.402   1_655  A
C1449      C1454   1.405       .  A
C1449      H1465   1.083       .  S
C1450      C1451   1.404       .  A
C1450      H1466   1.083       .  S
C1451      C1461   1.412       .  A
C1451      C1452   1.414   1_455  A
C1452      C1458   1.410   1_554  A
C1452      C1453   1.421       .  A
C1453      C1455   1.414   1_554  A
C1453      C1454   1.409       .  A
C1454      C1462   1.408       .  A
C1455      C1464   1.416       .  A
C1455      C1456   1.406       .  A
C1456      C1457   1.404       .  A
C1456      H1467   1.083       .  S
C1457      C1458   1.406       .  A
C1457      H1468   1.083       .  S
C1458      C1459   1.410   1_655  A
C1459      C1460   1.411   1_556  A
C1459      H1469   1.084       .  S
C1460      C1461   1.406       .  A
C1461      H1470   1.084       .  S
C1462      C1463   1.413       .  A
C1462      H1471   1.084       .  S
C1463      C1464   1.411   1_554  A
C1464      H1472   1.084       .  S
C1473      C1474   1.398       .  A
C1473      C1478   1.404       .  A
C1473      H1489   1.084       .  S
C1474      C1475   1.403       .  A
C1474      H1490   1.084       .  S
C1475      C1485   1.403       .  A
C1475      C1476   1.413       .  A
C1476      C1482   1.410       .  A
C1476      C1477   1.411       .  A
C1477      C1479   1.413       .  A
C1477      C1478   1.410       .  A
C1478      C1486   1.400       .  A
C1479      C1488   1.403       .  A
C1479      C1480   1.403       .  A
C1480      C1481   1.398       .  A
C1480      H1491   1.084       .  S
C1481      C1482   1.404       .  A
C1481      H1492   1.084       .  S
C1482      C1483   1.400       .  A
C1483      C1484   1.408       .  A
C1483      H1493   1.084       .  S
C1484      C1485   1.406       .  A
C1485      H1494   1.084       .  S
C1486      C1487   1.408       .  A
C1486      H1495   1.085       .  S
C1487      C1488   1.405       .  A
C1488      H1496   1.084       .  S
C1497      C1498   1.405       .  A
C1497      C1502   1.407       .  A
C1497      H1513   1.083       .  S
C1498      C1499   1.405       .  A
C1498      H1514   1.083       .  S
C1499      C1509   1.419       .  A
C1499      C1500   1.415       .  A
C1500      C1506   1.406       .  A
C1500      C1501   1.418       .  A
C1501      C1503   1.415       .  A
C1501      C1502   1.409       .  A
C1502      C1510   1.410       .  A
C1503      C1512   1.406       .  A
C1503      C1504   1.402       .  A
C1504      C1505   1.398       .  A
C1504      H1515   1.084       .  S
C1505      C1506   1.405       .  A
C1505      H1516   1.084       .  S
C1506      C1507   1.399       .  A
C1507      C1508   1.416       .  A
C1507      H1517   1.084       .  S
C1508      C1509   1.411       .  A
C1509      H1518   1.083       .  S
C1510      C1511   1.410       .  A
C1510      H1519   1.085       .  S
C1511      C1512   1.403       .  A
C1512      H1520   1.085       .  S
C1521      C1522   1.407       .  A
C1521      C1526   1.407       .  A
C1521      H1537   1.083       .  S
C1522      C1523   1.407   1_545  A
C1522      H1538   1.083       .  S
C1523      C1533   1.416       .  A
C1523      C1524   1.412   1_554  A
C1524      C1530   1.413       .  A
C1524      C1525   1.418   1_565  A
C1525      C1527   1.408       .  A
C1525      C1526   1.414   1_556  A
C1526      C1534   1.418       .  A
C1527      C1536   1.399       .  A
C1527      C1528   1.403   1_545  A
C1528      C1529   1.397       .  A
C1528      H1539   1.084       .  S
C1529      C1530   1.402       .  A
C1529      H1540   1.084       .  S
C1530      C1531   1.403       .  A
C1531      C1532   1.404       .  A
C1531      H1541   1.085       .  S
C1532      C1533   1.411   1_556  A
C1533      H1542   1.084       .  S
C1534      C1535   1.413   1_554  A
C1534      H1543   1.084       .  S
C1535      C1536   1.412       .  A
C1536      H1544   1.084       .  S
C1545      C1546   1.402       .  A
C1545      C1550   1.404       .  A
C1545      H1561   1.083       .  S
C1546      C1547   1.405       .  A
C1546      H1562   1.083       .  S
C1547      C1557   1.407       .  A
C1547      C1548   1.411       .  A
C1548      C1554   1.413       .  A
C1548      C1549   1.416       .  A
C1549      C1551   1.410       .  A
C1549      C1550   1.413       .  A
C1550      C1558   1.409       .  A
C1551      C1560   1.405       .  A
C1551      C1552   1.404       .  A
C1552      C1553   1.400       .  A
C1552      H1563   1.084       .  S
C1553      C1554   1.404       .  A
C1553      H1564   1.084       .  S
C1554      C1555   1.407       .  A
C1555      C1556   1.407       .  A
C1555      H1565   1.084       .  S
C1556      C1557   1.410       .  A
C1557      H1566   1.084       .  S
C1558      C1559   1.408       .  A
C1558      H1567   1.084       .  S
C1559      C1560   1.409       .  A
C1560      H1568   1.084       .  S
C1569      C1570   1.405       .  A
C1569      C1574   1.406       .  A
C1569      H1585   1.083       .  S
C1570      C1571   1.406       .  A
C1570      H1586   1.083       .  S
C1571      C1581   1.415       .  A
C1571      C1572   1.413       .  A
C1572      C1578   1.409       .  A
C1572      C1573   1.418       .  A
C1573      C1575   1.413       .  A
C1573      C1574   1.412       .  A
C1574      C1582   1.413       .  A
C1575      C1584   1.405       .  A
C1575      C1576   1.403       .  A
C1576      C1577   1.398       .  A
C1576      H1587   1.084       .  S
C1577      C1578   1.404       .  A
C1577      H1588   1.084       .  S
C1578      C1579   1.402       .  A
C1579      C1580   1.412       .  A
C1579      H1589   1.084       .  S
C1580      C1581   1.412       .  A
C1581      H1590   1.084       .  S
C1582      C1583   1.410       .  A
C1582      H1591   1.084       .  S
C1583      C1584   1.405       .  A
C1584      H1592   1.085       .  S
C1593      C1594   1.400       .  A
C1593      C1598   1.403       .  A
C1593      H1609   1.084       .  S
C1594      C1595   1.405       .  A
C1594      H1610   1.084       .  S
C1595      C1605   1.406       .  A
C1595      C1596   1.410       .  A
C1596      C1602   1.413       .  A
C1596      C1597   1.420       .  A
C1597      C1599   1.412       .  A
C1597      C1598   1.413       .  A
C1598      C1606   1.408       .  A
C1599      C1608   1.413       .  A
C1599      C1600   1.406       .  A
C1600      C1601   1.405       .  A
C1600      H1611   1.083       .  S
C1601      C1602   1.406       .  A
C1601      H1612   1.083       .  S
C1602      C1603   1.415       .  A
C1603      C1604   1.411       .  A
C1603      H1613   1.084       .  S
C1604      C1605   1.413       .  A
C1605      H1614   1.084       .  S
C1606      C1607   1.405       .  A
C1606      H1615   1.084       .  S
C1607      C1608   1.410       .  A
C1608      H1616   1.084       .  S
C1617      C1618   1.398       .  A
C1617      C1622   1.403       .  A
C1617      H1633   1.084       .  S
C1618      C1619   1.403       .  A
C1618      H1634   1.084       .  S
C1619      C1629   1.403       .  A
C1619      C1620   1.412       .  A
C1620      C1626   1.411       .  A
C1620      C1621   1.410       .  A
C1621      C1623   1.413       .  A
C1621      C1622   1.412       .  A
C1622      C1630   1.401       .  A
C1623      C1632   1.403       .  A
C1623      C1624   1.403       .  A
C1624      C1625   1.398       .  A
C1624      H1635   1.084       .  S
C1625      C1626   1.403       .  A
C1625      H1636   1.084       .  S
C1626      C1627   1.401       .  A
C1627      C1628   1.406       .  A
C1627      H1637   1.084       .  S
C1628      C1629   1.406       .  A
C1629      H1638   1.084       .  S
C1630      C1631   1.404       .  A
C1630      H1639   1.085       .  S
C1631      C1632   1.404       .  A
C1632      H1640   1.085       .  S
C1641      C1642   1.402       .  A
C1641      C1646   1.405       .  A
C1641      H1657   1.083       .  S
C1642      C1643   1.404       .  A
C1642      H1658   1.083       .  S
C1643      C1653   1.409       .  A
C1643      C1644   1.413       .  A
C1644      C1650   1.410       .  A
C1644      C1645   1.415       .  A
C1645      C1647   1.413       .  A
C1645      C1646   1.411       .  A
C1646      C1654   1.407       .  A
C1647      C1656   1.406       .  A
C1647      C1648   1.403       .  A
C1648      C1649   1.399       .  A
C1648      H1659   1.084       .  S
C1649      C1650   1.404       .  A
C1649      H1660   1.084       .  S
C1650      C1651   1.403       .  A
C1651      C1652   1.408       .  A
C1651      H1661   1.085       .  S
C1652      C1653   1.408       .  A
C1653      H1662   1.084       .  S
C1654      C1655   1.409       .  A
C1654      H1663   1.084       .  S
C1655      C1656   1.405       .  A
C1656      H1664   1.084       .  S
C1665      C1666   1.403       .  A
C1665      C1670   1.405       .  A
C1665      H1681   1.083       .  S
C1666      C1667   1.405   1_556  A
C1666      H1682   1.083       .  S
C1667      C1677   1.413       .  A
C1667      C1668   1.413       .  A
C1668      C1674   1.410       .  A
C1668      C1669   1.418       .  A
C1669      C1671   1.412       .  A
C1669      C1670   1.412   1_554  A
C1670      C1678   1.411       .  A
C1671      C1680   1.407       .  A
C1671      C1672   1.404       .  A
C1672      C1673   1.400       .  A
C1672      H1683   1.084       .  S
C1673      C1674   1.405       .  A
C1673      H1684   1.084       .  S
C1674      C1675   1.405       .  A
C1675      C1676   1.412       .  A
C1675      H1685   1.084       .  S
C1676      C1677   1.411       .  A
C1677      H1686   1.084   1_554  S
C1678      C1679   1.408   1_556  A
C1678      H1687   1.084       .  S
C1679      C1680   1.407       .  A
C1680      H1688   1.085       .  S
C1689      C1690   1.395       .  A
C1689      C1694   1.402       .  A
C1689      H1705   1.084       .  S
C1690      C1691   1.402       .  A
C1690      H1706   1.084       .  S
C1691      C1701   1.397       .  A
C1691      C1692   1.412       .  A
C1692      C1698   1.412       .  A
C1692      C1693   1.407       .  A
C1693      C1695   1.412       .  A
C1693      C1694   1.411       .  A
C1694      C1702   1.395       .  A
C1695      C1704   1.402       .  A
C1695      C1696   1.403       .  A
C1696      C1697   1.398       .  A
C1696      H1707   1.084       .  S
C1697      C1698   1.403       .  A
C1697      H1708   1.084       .  S
C1698      C1699   1.401       .  A
C1699      C1700   1.404       .  A
C1699      H1709   1.085       .  S
C1700      C1701   1.403       .  A
C1701      H1710   1.085       .  S
C1702      C1703   1.405       .  A
C1702      H1711   1.084       .  S
C1703      C1704   1.405       .  A
C1704      H1712   1.084       .  S
C1713      C1714   1.403       .  A
C1713      C1718   1.405       .  A
C1713      H1729   1.083       .  S
C1714      C1715   1.404       .  A
C1714      H1730   1.083       .  S
C1715      C1725   1.413       .  A
C1715      C1716   1.416       .  A
C1716      C1722   1.409       .  A
C1716      C1717   1.415       .  A
C1717      C1719   1.415       .  A
C1717      C1718   1.411       .  A
C1718      C1726   1.407       .  A
C1719      C1728   1.405       .  A
C1719      C1720   1.403       .  A
C1720      C1721   1.398       .  A
C1720      H1731   1.084       .  S
C1721      C1722   1.404       .  A
C1721      H1732   1.084       .  S
C1722      C1723   1.398       .  A
C1723      C1724   1.409       .  A
C1723      H1733   1.086       .  S
C1724      C1725   1.405       .  A
C1725      H1734   1.084       .  S
C1726      C1727   1.407       .  A
C1726      H1735   1.085       .  S
C1727      C1728   1.403       .  A
C1728      H1736   1.085       .  S
C1737      C1738   1.405       .  A
C1737      C1742   1.406       .  A
C1737      H1753   1.083       .  S
C1738      C1739   1.406       .  A
C1738      H1754   1.083       .  S
C1739      C1749   1.413       .  A
C1739      C1740   1.412   1_554  A
C1740      C1746   1.413       .  A
C1740      C1741   1.419       .  A
C1741      C1743   1.409       .  A
C1741      C1742   1.414   1_556  A
C1742      C1750   1.417       .  A
C1743      C1752   1.403       .  A
C1743      C1744   1.404       .  A
C1744      C1745   1.399       .  A
C1744      H1755   1.084       .  S
C1745      C1746   1.403       .  A
C1745      H1756   1.084       .  S
C1746      C1747   1.406       .  A
C1747      C1748   1.404       .  A
C1747      H1757   1.085       .  S
C1748      C1749   1.409   1_556  A
C1749      H1758   1.084       .  S
C1750      C1751   1.411   1_554  A
C1750      H1759   1.084       .  S
C1751      C1752   1.412       .  A
C1752      H1760   1.084       .  S
C1761      C1762   1.397       .  A
C1761      C1766   1.403       .  A
C1761      H1777   1.084       .  S
C1762      C1763   1.403       .  A
C1762      H1778   1.084       .  S
C1763      C1773   1.401       .  A
C1763      C1764   1.412       .  A
C1764      C1770   1.412       .  A
C1764      C1765   1.412       .  A
C1765      C1767   1.413       .  A
C1765      C1766   1.411       .  A
C1766      C1774   1.400       .  A
C1767      C1776   1.407       .  A
C1767      C1768   1.404       .  A
C1768      C1769   1.401       .  A
C1768      H1779   1.084       .  S
C1769      C1770   1.405       .  A
C1769      H1780   1.084       .  S
C1770      C1771   1.405       .  A
C1771      C1772   1.408       .  A
C1771      H1781   1.084       .  S
C1772      C1773   1.405       .  A
C1773      H1782   1.085       .  S
C1774      C1775   1.404       .  A
C1774      H1783   1.085       .  S
C1775      C1776   1.406       .  A
C1776      H1784   1.084       .  S
C1785      C1786   1.400       .  A
C1785      C1790   1.403       .  A
C1785      H1801   1.083       .  S
C1786      C1787   1.405       .  A
C1786      H1802   1.084       .  S
C1787      C1797   1.401       .  A
C1787      C1788   1.408       .  A
C1788      C1794   1.416       .  A
C1788      C1789   1.413       .  A
C1789      C1791   1.406       .  A
C1789      C1790   1.415       .  A
C1790      C1798   1.410       .  A
C1791      C1800   1.398       .  A
C1791      C1792   1.405       .  A
C1792      C1793   1.398       .  A
C1792      H1803   1.084       .  S
C1793      C1794   1.402       .  A
C1793      H1804   1.084       .  S
C1794      C1795   1.407       .  A
C1795      C1796   1.403       .  A
C1795      H1805   1.084       .  S
C1796      C1797   1.408       .  A
C1797      H1806   1.085       .  S
C1798      C1799   1.406       .  A
C1798      H1807   1.084       .  S
C1799      C1800   1.414       .  A
C1800      H1808   1.084       .  S
C1809      C1810   1.401   1_545  A
C1809      C1814   1.405       .  A
C1809      H1825   1.084       .  S
C1810      C1811   1.404       .  A
C1810      H1826   1.084       .  S
C1811      C1821   1.409       .  A
C1811      C1812   1.413   1_565  A
C1812      C1818   1.412       .  A
C1812      C1813   1.419       .  A
C1813      C1815   1.413       .  A
C1813      C1814   1.411       .  A
C1814      C1822   1.407       .  A
C1815      C1824   1.412       .  A
C1815      C1816   1.405       .  A
C1816      C1817   1.403       .  A
C1816      H1827   1.083       .  S
C1817      C1818   1.405       .  A
C1817      H1828   1.083       .  S
C1818      C1819   1.410   1_545  A
C1819      C1820   1.408       .  A
C1819      H1829   1.084       .  S
C1820      C1821   1.406       .  A
C1821      H1830   1.084       .  S
C1822      C1823   1.410       .  A
C1822      H1831   1.084       .  S
C1823      C1824   1.409       .  A
C1824      H1832   1.084       .  S
C1833      C1834   1.397       .  A
C1833      C1838   1.403       .  A
C1833      H1849   1.084       .  S
C1834      C1835   1.403       .  A
C1834      H1850   1.084       .  S
C1835      C1845   1.397       .  A
C1835      C1836   1.411       .  A
C1836      C1842   1.413       .  A
C1836      C1837   1.406       .  A
C1837      C1839   1.410       .  A
C1837      C1838   1.413       .  A
C1838      C1846   1.401       .  A
C1839      C1848   1.394       .  A
C1839      C1840   1.402       .  A
C1840      C1841   1.395       .  A
C1840      H1851   1.084       .  S
C1841      C1842   1.402       .  A
C1841      H1852   1.084       .  S
C1842      C1843   1.397       .  A
C1843      C1844   1.403       .  A
C1843      H1853   1.085       .  S
C1844      C1845   1.404       .  A
C1845      H1854   1.085       .  S
C1846      C1847   1.405       .  A
C1846      H1855   1.084       .  S
C1847      C1848   1.406       .  A
C1848      H1856   1.084       .  S
C1857      C1858   1.405       .  A
C1857      C1862   1.406       .  A
C1857      H1873   1.083       .  S
C1858      C1859   1.406       .  A
C1858      H1874   1.083       .  S
C1859      C1869   1.414       .  A
C1859      C1860   1.412       .  A
C1860      C1866   1.413       .  A
C1860      C1861   1.421       .  A
C1861      C1863   1.410       .  A
C1861      C1862   1.413       .  A
C1862      C1870   1.416       .  A
C1863      C1872   1.409       .  A
C1863      C1864   1.405       .  A
C1864      C1865   1.402       .  A
C1864      H1875   1.083       .  S
C1865      C1866   1.404       .  A
C1865      H1876   1.084       .  S
C1866      C1867   1.409       .  A
C1867      C1868   1.407       .  A
C1867      H1877   1.085       .  S
C1868      C1869   1.410       .  A
C1869      H1878   1.084       .  S
C1870      C1871   1.413       .  A
C1870      H1879   1.084       .  S
C1871      C1872   1.414       .  A
C1872      H1880   1.084       .  S
C1881      C1882   1.398       .  A
C1881      C1886   1.404       .  A
C1881      H1897   1.084       .  S
C1882      C1883   1.403       .  A
C1882      H1898   1.084       .  S
C1883      C1893   1.402       .  A
C1883      C1884   1.413       .  A
C1884      C1890   1.411       .  A
C1884      C1885   1.411       .  A
C1885      C1887   1.413       .  A
C1885      C1886   1.410       .  A
C1886      C1894   1.401       .  A
C1887      C1896   1.403       .  A
C1887      C1888   1.403       .  A
C1888      C1889   1.398       .  A
C1888      H1899   1.084       .  S
C1889      C1890   1.404       .  A
C1889      H1900   1.084       .  S
C1890      C1891   1.401       .  A
C1891      C1892   1.407       .  A
C1891      H1901   1.085       .  S
C1892      C1893   1.406       .  A
C1893      H1902   1.084       .  S
C1894      C1895   1.409       .  A
C1894      H1903   1.084       .  S
C1895      C1896   1.407       .  A
C1896      H1904   1.084       .  S
C1905      C1906   1.400       .  A
C1905      C1910   1.403       .  A
C1905      H1921   1.084       .  S
C1906      C1907   1.405       .  A
C1906      H1922   1.084       .  S
C1907      C1917   1.402       .  A
C1907      C1908   1.407       .  A
C1908      C1914   1.415       .  A
C1908      C1909   1.414       .  A
C1909      C1911   1.408       .  A
C1909      C1910   1.416       .  A
C1910      C1918   1.410       .  A
C1911      C1920   1.401       .  A
C1911      C1912   1.404       .  A
C1912      C1913   1.400       .  A
C1912      H1923   1.084       .  S
C1913      C1914   1.403       .  A
C1913      H1924   1.083       .  S
C1914      C1915   1.409       .  A
C1915      C1916   1.406       .  A
C1915      H1925   1.084       .  S
C1916      C1917   1.414       .  A
C1917      H1926   1.084       .  S
C1918      C1919   1.404       .  A
C1918      H1927   1.084       .  S
C1919      C1920   1.408       .  A
C1920      H1928   1.085       .  S
C1929      C1930   1.401       .  A
C1929      C1934   1.404       .  A
C1929      H1945   1.083       .  S
C1930      C1931   1.404       .  A
C1930      H1946   1.083       .  S
C1931      C1941   1.409       .  A
C1931      C1932   1.412       .  A
C1932      C1938   1.413       .  A
C1932      C1933   1.419       .  A
C1933      C1935   1.410       .  A
C1933      C1934   1.413       .  A
C1934      C1942   1.410       .  A
C1935      C1944   1.409       .  A
C1935      C1936   1.406       .  A
C1936      C1937   1.403       .  A
C1936      H1947   1.084       .  S
C1937      C1938   1.405       .  A
C1937      H1948   1.084       .  S
C1938      C1939   1.412       .  A
C1939      C1940   1.409       .  A
C1939      H1949   1.084       .  S
C1940      C1941   1.406       .  A
C1941      H1950   1.084       .  S
C1942      C1943   1.408       .  A
C1942      H1951   1.084       .  S
C1943      C1944   1.414       .  A
C1944      H1952   1.084       .  S
C1953      C1954   1.398       .  A
C1953      C1958   1.403       .  A
C1953      H1969   1.084       .  S
C1954      C1955   1.403       .  A
C1954      H1970   1.084       .  S
C1955      C1965   1.400       .  A
C1955      C1956   1.411       .  A
C1956      C1962   1.413       .  A
C1956      C1957   1.411       .  A
C1957      C1959   1.411       .  A
C1957      C1958   1.413       .  A
C1958      C1966   1.403       .  A
C1959      C1968   1.402       .  A
C1959      C1960   1.404       .  A
C1960      C1961   1.399       .  A
C1960      H1971   1.084       .  S
C1961      C1962   1.404       .  A
C1961      H1972   1.084       .  S
C1962      C1963   1.404       .  A
C1963      C1964   1.407       .  A
C1963      H1973   1.084       .  S
C1964      C1965   1.407       .  A
C1965      H1974   1.085       .  S
C1966      C1967   1.405       .  A
C1966      H1975   1.084       .  S
C1967      C1968   1.408       .  A
C1968      H1976   1.085       .  S
C1977      C1978   1.397       .  A
C1977      C1982   1.403       .  A
C1977      H1993   1.084       .  S
C1978      C1979   1.403       .  A
C1978      H1994   1.084       .  S
C1979      C1989   1.401       .  A
C1979      C1980   1.413       .  A
C1980      C1986   1.411       .  A
C1980      C1981   1.409       .  A
C1981      C1983   1.413       .  A
C1981      C1982   1.411       .  A
C1982      C1990   1.399       .  A
C1983      C1992   1.401       .  A
C1983      C1984   1.403       .  A
C1984      C1985   1.397       .  A
C1984      H1995   1.084       .  S
C1985      C1986   1.403       .  A
C1985      H1996   1.084       .  S
C1986      C1987   1.399       .  A
C1987      C1988   1.406       .  A
C1987      H1997   1.085       .  S
C1988      C1989   1.405       .  A
C1989      H1998   1.084       .  S
C1990      C1991   1.403       .  A
C1990      H1999   1.085       .  S
C1991      C1992   1.402       .  A
C1992      H2000   1.085       .  S
C2001      C2002   1.398       .  A
C2001      C2006   1.404       .  A
C2001      H2017   1.084       .  S
C2002      C2003   1.402       .  A
C2002      H2018   1.084       .  S
C2003      C2013   1.406       .  A
C2003      C2004   1.416       .  A
C2004      C2010   1.408       .  A
C2004      C2005   1.414       .  A
C2005      C2007   1.417       .  A
C2005      C2006   1.406       .  A
C2006      C2014   1.396       .  A
C2007      C2016   1.414       .  A
C2007      C2008   1.404       .  A
C2008      C2009   1.402       .  A
C2008      H2019   1.083       .  S
C2009      C2010   1.406       .  A
C2009      H2020   1.083       .  S
C2010      C2011   1.403       .  A
C2011      C2012   1.408       .  A
C2011      H2021   1.085       .  S
C2012      C2013   1.401       .  A
C2013      H2022   1.084       .  S
C2014      C2015   1.412       .  A
C2014      H2023   1.085       .  S
C2015      C2016   1.406       .  A
C2016      H2024   1.084       .  S
C2025      C2026   1.396       .  A
C2025      C2030   1.403       .  A
C2025      H2041   1.084       .  S
C2026      C2027   1.402       .  A
C2026      H2042   1.084       .  S
C2027      C2037   1.399       .  A
C2027      C2028   1.411       .  A
C2028      C2034   1.413   1_565  A
C2028      C2029   1.418   1_565  A
C2029      C2031   1.414       .  A
C2029      C2030   1.409   1_545  A
C2030      C2038   1.398   1_565  A
C2031      C2040   1.419       .  A
C2031      C2032   1.407       .  A
C2032      C2033   1.408       .  A
C2032      H2043   1.083       .  S
C2033      C2034   1.407       .  A
C2033      H2044   1.083       .  S
C2034      C2035   1.418   1_545  A
C2035      C2036   1.411       .  A
C2035      H2045   1.084       .  S
C2036      C2037   1.407       .  A
C2037      H2046   1.085       .  S
C2038      C2039   1.410       .  A
C2038      H2047   1.085       .  S
C2039      C2040   1.411       .  A
C2040      H2048   1.084       .  S
C2049      C2050   1.400       .  A
C2049      C2054   1.405       .  A
C2049      H2065   1.084       .  S
C2050      C2051   1.403       .  A
C2050      H2066   1.083       .  S
C2051      C2061   1.410       .  A
C2051      C2052   1.416       .  A
C2052      C2058   1.407       .  A
C2052      C2053   1.415       .  A
C2053      C2055   1.416       .  A
C2053      C2054   1.406       .  A
C2054      C2062   1.400       .  A
C2055      C2064   1.411       .  A
C2055      C2056   1.403       .  A
C2056      C2057   1.400       .  A
C2056      H2067   1.083       .  S
C2057      C2058   1.405       .  A
C2057      H2068   1.083       .  S
C2058      C2059   1.402       .  A
C2059      C2060   1.412       .  A
C2059      H2069   1.084       .  S
C2060      C2061   1.406       .  A
C2061      H2070   1.084       .  S
C2062      C2063   1.414       .  A
C2062      H2071   1.084       .  S
C2063      C2064   1.406       .  A
C2064      H2072   1.084       .  S
C2073      C2074   1.400   1_455  A
C2073      C2078   1.404       .  A
C2073      H2089   1.084       .  S
C2074      C2075   1.405       .  A
C2074      H2090   1.084       .  S
C2075      C2085   1.405       .  A
C2075      C2076   1.410       .  A
C2076      C2082   1.413       .  A
C2076      C2077   1.417       .  A
C2077      C2079   1.412       .  A
C2077      C2078   1.413   1_655  A
C2078      C2086   1.407       .  A
C2079      C2088   1.409   1_655  A
C2079      C2080   1.405       .  A
C2080      C2081   1.402       .  A
C2080      H2091   1.083       .  S
C2081      C2082   1.404       .  A
C2081      H2092   1.083       .  S
C2082      C2083   1.410       .  A
C2083      C2084   1.409       .  A
C2083      H2093   1.084       .  S
C2084      C2085   1.412       .  A
C2085      H2094   1.084       .  S
C2086      C2087   1.406       .  A
C2086      H2095   1.085       .  S
C2087      C2088   1.407       .  A
C2088      H2096   1.084       .  S
C2097      C2098   1.399       .  A
C2097      C2102   1.403       .  A
C2097      H2113   1.084       .  S
C2098      C2099   1.404       .  A
C2098      H2114   1.084       .  S
C2099      C2109   1.402       .  A
C2099      C2100   1.412       .  A
C2100      C2106   1.411       .  A
C2100      C2101   1.409       .  A
C2101      C2103   1.411       .  A
C2101      C2102   1.412       .  A
C2102      C2110   1.402       .  A
C2103      C2112   1.397       .  A
C2103      C2104   1.402       .  A
C2104      C2105   1.396       .  A
C2104      H2115   1.084       .  S
C2105      C2106   1.402       .  A
C2105      H2116   1.084       .  S
C2106      C2107   1.398       .  A
C2107      C2108   1.405       .  A
C2107      H2117   1.085       .  S
C2108      C2109   1.406       .  A
C2109      H2118   1.084       .  S
C2110      C2111   1.406       .  A
C2110      H2119   1.085       .  S
C2111      C2112   1.405       .  A
C2112      H2120   1.085       .  S
C2121      C2122   1.403       .  A
C2121      C2126   1.405       .  A
C2121      H2137   1.083       .  S
C2122      C2123   1.404       .  A
C2122      H2138   1.083       .  S
C2123      C2133   1.413       .  A
C2123      C2124   1.414       .  A
C2124      C2130   1.411       .  A
C2124      C2125   1.421       .  A
C2125      C2127   1.413       .  A
C2125      C2126   1.411       .  A
C2126      C2134   1.411       .  A
C2127      C2136   1.413       .  A
C2127      C2128   1.405       .  A
C2128      C2129   1.403       .  A
C2128      H2139   1.083       .  S
C2129      C2130   1.406       .  A
C2129      H2140   1.084       .  S
C2130      C2131   1.410       .  A
C2131      C2132   1.411       .  A
C2131      H2141   1.085       .  S
C2132      C2133   1.407       .  A
C2133      H2142   1.084       .  S
C2134      C2135   1.410       .  A
C2134      H2143   1.084       .  S
C2135      C2136   1.410       .  A
C2136      H2144   1.084       .  S
C2145      C2146   1.397       .  A
C2145      C2150   1.403       .  A
C2145      H2161   1.084       .  S
C2146      C2147   1.402       .  A
C2146      H2162   1.084       .  S
C2147      C2157   1.403       .  A
C2147      C2148   1.414       .  A
C2148      C2154   1.410       .  A
C2148      C2149   1.414       .  A
C2149      C2151   1.415       .  A
C2149      C2150   1.408       .  A
C2150      C2158   1.397       .  A
C2151      C2160   1.413       .  A
C2151      C2152   1.405       .  A
C2152      C2153   1.403       .  A
C2152      H2163   1.083       .  S
C2153      C2154   1.406       .  A
C2153      H2164   1.083       .  S
C2154      C2155   1.407       .  A
C2155      C2156   1.408       .  A
C2155      H2165   1.085       .  S
C2156      C2157   1.401       .  A
C2157      H2166   1.085       .  S
C2158      C2159   1.409       .  A
C2158      H2167   1.085       .  S
C2159      C2160   1.408       .  A
C2160      H2168   1.084       .  S
C2169      C2170   1.408       .  A
C2169      C2174   1.407       .  A
C2169      H2185   1.083       .  S
C2170      C2171   1.407       .  A
C2170      H2186   1.083       .  S
C2171      C2181   1.421       .  A
C2171      C2172   1.413       .  A
C2172      C2178   1.409       .  A
C2172      C2173   1.421       .  A
C2173      C2175   1.412       .  A
C2173      C2174   1.413       .  A
C2174      C2182   1.419       .  A
C2175      C2184   1.405       .  A
C2175      C2176   1.403       .  A
C2176      C2177   1.398       .  A
C2176      H2187   1.084       .  S
C2177      C2178   1.404       .  A
C2177      H2188   1.084       .  S
C2178      C2179   1.403   1_455  A
C2179      C2180   1.414       .  A
C2179      H2189   1.084       .  S
C2180      C2181   1.414   1_655  A
C2181      H2190   1.083       .  S
C2182      C2183   1.412       .  A
C2182      H2191   1.084       .  S
C2183      C2184   1.407       .  A
C2184      H2192   1.085       .  S
C2193      C2194   1.403       .  A
C2193      C2198   1.405       .  A
C2193      H2209   1.083       .  S
C2194      C2195   1.405       .  A
C2194      H2210   1.083       .  S
C2195      C2205   1.409       .  A
C2195      C2196   1.410       .  A
C2196      C2202   1.414       .  A
C2196      C2197   1.420       .  A
C2197      C2199   1.410       .  A
C2197      C2198   1.415       .  A
C2198      C2206   1.414       .  A
C2199      C2208   1.408       .  A
C2199      C2200   1.405       .  A
C2200      C2201   1.402       .  A
C2200      H2211   1.083       .  S
C2201      C2202   1.404       .  A
C2201      H2212   1.084       .  S
C2202      C2203   1.412       .  A
C2203      C2204   1.409       .  A
C2203      H2213   1.084       .  S
C2204      C2205   1.412       .  A
C2205      H2214   1.084       .  S
C2206      C2207   1.408       .  A
C2206      H2215   1.084       .  S
C2207      C2208   1.411       .  A
C2208      H2216   1.085       .  S
C2217      C2218   1.396       .  A
C2217      C2222   1.402       .  A
C2217      H2233   1.084       .  S
C2218      C2219   1.403       .  A
C2218      H2234   1.084       .  S
C2219      C2229   1.398       .  A
C2219      C2220   1.410       .  A
C2220      C2226   1.413       .  A
C2220      C2221   1.411       .  A
C2221      C2223   1.411       .  A
C2221      C2222   1.412       .  A
C2222      C2230   1.400       .  A
C2223      C2232   1.403       .  A
C2223      C2224   1.404       .  A
C2224      C2225   1.400       .  A
C2224      H2235   1.084       .  S
C2225      C2226   1.404       .  A
C2225      H2236   1.084       .  S
C2226      C2227   1.405       .  A
C2227      C2228   1.408       .  A
C2227      H2237   1.084       .  S
C2228      C2229   1.408       .  A
C2229      H2238   1.084       .  S
C2230      C2231   1.405       .  A
C2230      H2239   1.085       .  S
C2231      C2232   1.408       .  A
C2232      H2240   1.084       .  S
C2241      C2242   1.400       .  A
C2241      C2246   1.405       .  A
C2241      H2257   1.084       .  S
C2242      C2243   1.403       .  A
C2242      H2258   1.083       .  S
C2243      C2253   1.411       .  A
C2243      C2244   1.418       .  A
C2244      C2250   1.407       .  A
C2244      C2245   1.414       .  A
C2245      C2247   1.417       .  A
C2245      C2246   1.407       .  A
C2246      C2254   1.399       .  A
C2247      C2256   1.411       .  A
C2247      C2248   1.403       .  A
C2248      C2249   1.400       .  A
C2248      H2259   1.083       .  S
C2249      C2250   1.405       .  A
C2249      H2260   1.084       .  S
C2250      C2251   1.399       .  A
C2251      C2252   1.409       .  A
C2251      H2261   1.085       .  S
C2252      C2253   1.403       .  A
C2253      H2262   1.084       .  S
C2254      C2255   1.410       .  A
C2254      H2263   1.085       .  S
C2255      C2256   1.404       .  A
C2256      H2264   1.084       .  S
C2265      C2266   1.401       .  A
C2265      C2270   1.405       .  A
C2265      H2281   1.083       .  S
C2266      C2267   1.404       .  A
C2266      H2282   1.084       .  S
C2267      C2277   1.409       .  A
C2267      C2268   1.413       .  A
C2268      C2274   1.410       .  A
C2268      C2269   1.417       .  A
C2269      C2271   1.414       .  A
C2269      C2270   1.410       .  A
C2270      C2278   1.407       .  A
C2271      C2280   1.410       .  A
C2271      C2272   1.404       .  A
C2272      C2273   1.401       .  A
C2272      H2283   1.083       .  S
C2273      C2274   1.404       .  A
C2273      H2284   1.084       .  S
C2274      C2275   1.406       .  A
C2275      C2276   1.409       .  A
C2275      H2285   1.084       .  S
C2276      C2277   1.408       .  A
C2277      H2286   1.084       .  S
C2278      C2279   1.410       .  A
C2278      H2287   1.084       .  S
C2279      C2280   1.407       .  A
C2280      H2288   1.084       .  S
C2289      C2290   1.405       .  A
C2289      C2294   1.406       .  A
C2289      H2305   1.083       .  S
C2290      C2291   1.406   1_545  A
C2290      H2306   1.083       .  S
C2291      C2301   1.416       .  A
C2291      C2292   1.414   1_565  A
C2292      C2298   1.410   1_545  A
C2292      C2293   1.419       .  A
C2293      C2295   1.414       .  A
C2293      C2294   1.410       .  A
C2294      C2302   1.411       .  A
C2295      C2304   1.409       .  A
C2295      C2296   1.403       .  A
C2296      C2297   1.400   1_545  A
C2296      H2307   1.084       .  S
C2297      C2298   1.404       .  A
C2297      H2308   1.084       .  S
C2298      C2299   1.405       .  A
C2299      C2300   1.408       .  A
C2299      H2309   1.085       .  S
C2300      C2301   1.410       .  A
C2301      H2310   1.084       .  S
C2302      C2303   1.412       .  A
C2302      H2311   1.084       .  S
C2303      C2304   1.407       .  A
C2304      H2312   1.084       .  S
C2313      C2314   1.409       .  A
C2313      C2318   1.408       .  A
C2313      H2329   1.083       .  S
C2314      C2315   1.408       .  A
C2314      H2330   1.083       .  S
C2315      C2325   1.419       .  A
C2315      C2316   1.413       .  A
C2316      C2322   1.412       .  A
C2316      C2317   1.420       .  A
C2317      C2319   1.408       .  A
C2317      C2318   1.414       .  A
C2318      C2326   1.422       .  A
C2319      C2328   1.400       .  A
C2319      C2320   1.403       .  A
C2320      C2321   1.396       .  A
C2320      H2331   1.084       .  S
C2321      C2322   1.402       .  A
C2321      H2332   1.084       .  S
C2322      C2323   1.401       .  A
C2323      C2324   1.405       .  A
C2323      H2333   1.085       .  S
C2324      C2325   1.412       .  A
C2325      H2334   1.084       .  S
C2326      C2327   1.415       .  A
C2326      H2335   1.083       .  S
C2327      C2328   1.412       .  A
C2328      H2336   1.084       .  S
C2337      C2338   1.400       .  A
C2337      C2342   1.404       .  A
C2337      H2353   1.084       .  S
C2338      C2339   1.405       .  A
C2338      H2354   1.084       .  S
C2339      C2349   1.405       .  A
C2339      C2340   1.411       .  A
C2340      C2346   1.412       .  A
C2340      C2341   1.412       .  A
C2341      C2343   1.411       .  A
C2341      C2342   1.413       .  A
C2342      C2350   1.405       .  A
C2343      C2352   1.401       .  A
C2343      C2344   1.403       .  A
C2344      C2345   1.398       .  A
C2344      H2355   1.084       .  S
C2345      C2346   1.403       .  A
C2345      H2356   1.084       .  S
C2346      C2347   1.403       .  A
C2347      C2348   1.405       .  A
C2347      H2357   1.085       .  S
C2348      C2349   1.407       .  A
C2349      H2358   1.084       .  S
C2350      C2351   1.406       .  A
C2350      H2359   1.084       .  S
C2351      C2352   1.404       .  A
C2352      H2360   1.085       .  S
C2361      C2362   1.395       .  A
C2361      C2366   1.401       .  A
C2361      H2377   1.084       .  S
C2362      C2363   1.402       .  A
C2362      H2378   1.084       .  S
C2363      C2373   1.395       .  A
C2363      C2364   1.410       .  A
C2364      C2370   1.412       .  A
C2364      C2365   1.408       .  A
C2365      C2367   1.412       .  A
C2365      C2366   1.413       .  A
C2366      C2374   1.397       .  A
C2367      C2376   1.401       .  A
C2367      C2368   1.404       .  A
C2368      C2369   1.399       .  A
C2368      H2379   1.084       .  S
C2369      C2370   1.404       .  A
C2369      H2380   1.084       .  S
C2370      C2371   1.402       .  A
C2371      C2372   1.406       .  A
C2371      H2381   1.084       .  S
C2372      C2373   1.405       .  A
C2373      H2382   1.084       .  S
C2374      C2375   1.401       .  A
C2374      H2383   1.085       .  S
C2375      C2376   1.406       .  A
C2376      H2384   1.085       .  S
C2385      C2386   1.402       .  A
C2385      C2390   1.406       .  A
C2385      H2401   1.084       .  S
C2386      C2387   1.404       .  A
C2386      H2402   1.084       .  S
C2387      C2397   1.411       .  A
C2387      C2388   1.414       .  A
C2388      C2394   1.411       .  A
C2388      C2389   1.419       .  A
C2389      C2391   1.414       .  A
C2389      C2390   1.409       .  A
C2390      C2398   1.407       .  A
C2391      C2400   1.414       .  A
C2391      C2392   1.404       .  A
C2392      C2393   1.402       .  A
C2392      H2403   1.083       .  S
C2393      C2394   1.405       .  A
C2393      H2404   1.083       .  S
C2394      C2395   1.409       .  A
C2395      C2396   1.408       .  A
C2395      H2405   1.084       .  S
C2396      C2397   1.408       .  A
C2397      H2406   1.084       .  S
C2398      C2399   1.415       .  A
C2398      H2407   1.084       .  S
C2399      C2400   1.409       .  A
C2400      H2408   1.084       .  S
C2409      C2410   1.408       .  A
C2409      C2414   1.408       .  A
C2409      H2425   1.083       .  S
C2410      C2411   1.407       .  A
C2410      H2426   1.083       .  S
C2411      C2421   1.420       .  A
C2411      C2412   1.413       .  A
C2412      C2418   1.409       .  A
C2412      C2413   1.422       .  A
C2413      C2415   1.413       .  A
C2413      C2414   1.412       .  A
C2414      C2422   1.419       .  A
C2415      C2424   1.406       .  A
C2415      C2416   1.402       .  A
C2416      C2417   1.398       .  A
C2416      H2427   1.084       .  S
C2417      C2418   1.404       .  A
C2417      H2428   1.084       .  S
C2418      C2419   1.404       .  A
C2419      C2420   1.413       .  A
C2419      H2429   1.084       .  S
C2420      C2421   1.415       .  A
C2421      H2430   1.084       .  S
C2422      C2423   1.413       .  A
C2422      H2431   1.084       .  S
C2423      C2424   1.405       .  A
C2424      H2432   1.085       .  S
C2433      C2434   1.399       .  A
C2433      C2438   1.404       .  A
C2433      H2449   1.084       .  S
C2434      C2435   1.404       .  A
C2434      H2450   1.084       .  S
C2435      C2445   1.402       .  A
C2435      C2436   1.412       .  A
C2436      C2442   1.411       .  A
C2436      C2437   1.410       .  A
C2437      C2439   1.413       .  A
C2437      C2438   1.412       .  A
C2438      C2446   1.403       .  A
C2439      C2448   1.400       .  A
C2439      C2440   1.402       .  A
C2440      C2441   1.396       .  A
C2440      H2451   1.084       .  S
C2441      C2442   1.402       .  A
C2441      H2452   1.084       .  S
C2442      C2443   1.398       .  A
C2443      C2444   1.404       .  A
C2443      H2453   1.084       .  S
C2444      C2445   1.406       .  A
C2445      H2454   1.085       .  S
C2446      C2447   1.406       .  A
C2446      H2455   1.085       .  S
C2447      C2448   1.401       .  A
C2448      H2456   1.085       .  S
C2457      C2458   1.400   1_545  A
C2457      C2462   1.404       .  A
C2457      H2473   1.084       .  S
C2458      C2459   1.404       .  A
C2458      H2474   1.083       .  S
C2459      C2469   1.406       .  A
C2459      C2460   1.411   1_565  A
C2460      C2466   1.413       .  A
C2460      C2461   1.416       .  A
C2461      C2463   1.410       .  A
C2461      C2462   1.413       .  A
C2462      C2470   1.408       .  A
C2463      C2472   1.406       .  A
C2463      C2464   1.405       .  A
C2464      C2465   1.401       .  A
C2464      H2475   1.084       .  S
C2465      C2466   1.404       .  A
C2465      H2476   1.084       .  S
C2466      C2467   1.409   1_545  A
C2467      C2468   1.406       .  A
C2467      H2477   1.085       .  S
C2468      C2469   1.405       .  A
C2469      H2478   1.085       .  S
C2470      C2471   1.407       .  A
C2470      H2479   1.084       .  S
C2471      C2472   1.411       .  A
C2472      H2480   1.084       .  S
C2481      C2482   1.404       .  A
C2481      C2486   1.406       .  A
C2481      H2497   1.084       .  S
C2482      C2483   1.405       .  A
C2482      H2498   1.083       .  S
C2483      C2493   1.417       .  A
C2483      C2484   1.415       .  A
C2484      C2490   1.409       .  A
C2484      C2485   1.423       .  A
C2485      C2487   1.416       .  A
C2485      C2486   1.409       .  A
C2486      C2494   1.410       .  A
C2487      C2496   1.418       .  A
C2487      C2488   1.405       .  A
C2488      C2489   1.404       .  A
C2488      H2499   1.083       .  S
C2489      C2490   1.406       .  A
C2489      H2500   1.083       .  S
C2490      C2491   1.411       .  A
C2491      C2492   1.412       .  A
C2491      H2501   1.085       .  S
C2492      C2493   1.409       .  A
C2493      H2502   1.084       .  S
C2494      C2495   1.413       .  A
C2494      H2503   1.085       .  S
C2495      C2496   1.409       .  A
C2496      H2504   1.084       .  S
C2505      C2506   1.400       .  A
C2505      C2510   1.405       .  A
C2505      H2521   1.084       .  S
C2506      C2507   1.402       .  A
C2506      H2522   1.084       .  S
C2507      C2517   1.409       .  A
C2507      C2508   1.416       .  A
C2508      C2514   1.407       .  A
C2508      C2509   1.414       .  A
C2509      C2511   1.415       .  A
C2509      C2510   1.407       .  A
C2510      C2518   1.401       .  A
C2511      C2520   1.410       .  A
C2511      C2512   1.403       .  A
C2512      C2513   1.400       .  A
C2512      H2523   1.083       .  S
C2513      C2514   1.405       .  A
C2513      H2524   1.084       .  S
C2514      C2515   1.400       .  A
C2515      C2516   1.411       .  A
C2515      H2525   1.085       .  S
C2516      C2517   1.404       .  A
C2517      H2526   1.084       .  S
C2518      C2519   1.413       .  A
C2518      H2527   1.084       .  S
C2519      C2520   1.407       .  A
C2520      H2528   1.084       .  S
C2529      C2530   1.404       .  A
C2529      C2534   1.406       .  A
C2529      H2545   1.083       .  S
C2530      C2531   1.405       .  A
C2530      H2546   1.083       .  S
C2531      C2541   1.413       .  A
C2531      C2532   1.414       .  A
C2532      C2538   1.411       .  A
C2532      C2533   1.417       .  A
C2533      C2535   1.413       .  A
C2533      C2534   1.412       .  A
C2534      C2542   1.411       .  A
C2535      C2544   1.406       .  A
C2535      C2536   1.403       .  A
C2536      C2537   1.399       .  A
C2536      H2547   1.084       .  S
C2537      C2538   1.404       .  A
C2537      H2548   1.084       .  S
C2538      C2539   1.403       .  A
C2539      C2540   1.406       .  A
C2539      H2549   1.085       .  S
C2540      C2541   1.408       .  A
C2541      H2550   1.084       .  S
C2542      C2543   1.410       .  A
C2542      H2551   1.084       .  S
C2543      C2544   1.406       .  A
C2544      H2552   1.085       .  S
C2553      C2554   1.403       .  A
C2553      C2558   1.405       .  A
C2553      H2569   1.083       .  S
C2554      C2555   1.405       .  A
C2554      H2570   1.083       .  S
C2555      C2565   1.414       .  A
C2555      C2556   1.414       .  A
C2556      C2562   1.410       .  A
C2556      C2557   1.421       .  A
C2557      C2559   1.414       .  A
C2557      C2558   1.411       .  A
C2558      C2566   1.410       .  A
C2559      C2568   1.414       .  A
C2559      C2560   1.405       .  A
C2560      C2561   1.403       .  A
C2560      H2571   1.083       .  S
C2561      C2562   1.406       .  A
C2561      H2572   1.083       .  S
C2562      C2563   1.409       .  A
C2563      C2564   1.414       .  A
C2563      H2573   1.084       .  S
C2564      C2565   1.409       .  A
C2565      H2574   1.084       .  S
C2566      C2567   1.409       .  A
C2566      H2575   1.084       .  S
C2567      C2568   1.408       .  A
C2568      H2576   1.084       .  S
C2577      C2578   1.400       .  A
C2577      C2582   1.404       .  A
C2577      H2593   1.084       .  S
C2578      C2579   1.404       .  A
C2578      H2594   1.084       .  S
C2579      C2589   1.406       .  A
C2579      C2580   1.413       .  A
C2580      C2586   1.410       .  A
C2580      C2581   1.410       .  A
C2581      C2583   1.413       .  A
C2581      C2582   1.411       .  A
C2582      C2590   1.403       .  A
C2583      C2592   1.400       .  A
C2583      C2584   1.402       .  A
C2584      C2585   1.396       .  A
C2584      H2595   1.084       .  S
C2585      C2586   1.402       .  A
C2585      H2596   1.084       .  S
C2586      C2587   1.397       .  A
C2587      C2588   1.405       .  A
C2587      H2597   1.085       .  S
C2588      C2589   1.407       .  A
C2589      H2598   1.084       .  S
C2590      C2591   1.409       .  A
C2590      H2599   1.085       .  S
C2591      C2592   1.404       .  A
C2592      H2600   1.085       .  S
C2601      C2602   1.396       .  A
C2601      C2606   1.402       .  A
C2601      H2617   1.084       .  S
C2602      C2603   1.402       .  A
C2602      H2618   1.084       .  S
C2603      C2613   1.398       .  A
C2603      C2604   1.411       .  A
C2604      C2610   1.412       .  A
C2604      C2605   1.409       .  A
C2605      C2607   1.412       .  A
C2605      C2606   1.411       .  A
C2606      C2614   1.397       .  A
C2607      C2616   1.403       .  A
C2607      C2608   1.404       .  A
C2608      C2609   1.399       .  A
C2608      H2619   1.084       .  S
C2609      C2610   1.404       .  A
C2609      H2620   1.084       .  S
C2610      C2611   1.403       .  A
C2611      C2612   1.405       .  A
C2611      H2621   1.084       .  S
C2612      C2613   1.405       .  A
C2613      H2622   1.085       .  S
C2614      C2615   1.403       .  A
C2614      H2623   1.085       .  S
C2615      C2616   1.405       .  A
C2616      H2624   1.084       .  S
C2625      C2626   1.398       .  A
C2625      C2630   1.405       .  A
C2625      H2641   1.084       .  S
C2626      C2627   1.402       .  A
C2626      H2642   1.084       .  S
C2627      C2637   1.408       .  A
C2627      C2628   1.417       .  A
C2628      C2634   1.407       .  A
C2628      C2629   1.413       .  A
C2629      C2631   1.416       .  A
C2629      C2630   1.406       .  A
C2630      C2638   1.397       .  A
C2631      C2640   1.410       .  A
C2631      C2632   1.403       .  A
C2632      C2633   1.401       .  A
C2632      H2643   1.083       .  S
C2633      C2634   1.405       .  A
C2633      H2644   1.084       .  S
C2634      C2635   1.400       .  A
C2635      C2636   1.411       .  A
C2635      H2645   1.085       .  S
C2636      C2637   1.402       .  A
C2637      H2646   1.084       .  S
C2638      C2639   1.413       .  A
C2638      H2647   1.084       .  S
C2639      C2640   1.407       .  A
C2640      H2648   1.084       .  S
C2649      C2650   1.396       .  A
C2649      C2654   1.401       .  A
C2649      H2665   1.084       .  S
C2650      C2651   1.404       .  A
C2650      H2666   1.084       .  S
C2651      C2661   1.394       .  A
C2651      C2652   1.405       .  A
C2652      C2658   1.417       .  A
C2652      C2653   1.416       .  A
C2653      C2655   1.408       .  A
C2653      C2654   1.416       .  A
C2654      C2662   1.405       .  A
C2655      C2664   1.408       .  A
C2655      C2656   1.407       .  A
C2656      C2657   1.405       .  A
C2656      H2667   1.083       .  S
C2657      C2658   1.405       .  A
C2657      H2668   1.083       .  S
C2658      C2659   1.419       .  A
C2659      C2660   1.410       .  A
C2659      H2669   1.084       .  S
C2660      C2661   1.413       .  A
C2661      H2670   1.084       .  S
C2662      C2663   1.400       .  A
C2662      H2671   1.085       .  S
C2663      C2664   1.410       .  A
C2664      H2672   1.085       .  S
C2673      C2674   1.401       .  A
C2673      C2678   1.404       .  A
C2673      H2689   1.084       .  S
C2674      C2675   1.405       .  A
C2674      H2690   1.084       .  S
C2675      C2685   1.406       .  A
C2675      C2676   1.411   1_556  A
C2676      C2682   1.414       .  A
C2676      C2677   1.417       .  A
C2677      C2679   1.410       .  A
C2677      C2678   1.413   1_554  A
C2678      C2686   1.409       .  A
C2679      C2688   1.406       .  A
C2679      C2680   1.405       .  A
C2680      C2681   1.401       .  A
C2680      H2691   1.083       .  S
C2681      C2682   1.404       .  A
C2681      H2692   1.083       .  S
C2682      C2683   1.409       .  A
C2683      C2684   1.405       .  A
C2683      H2693   1.084       .  S
C2684      C2685   1.408   1_554  A
C2685      H2694   1.085       .  S
C2686      C2687   1.410   1_556  A
C2686      H2695   1.084       .  S
C2687      C2688   1.410       .  A
C2688      H2696   1.084       .  S
C2697      C2698   1.398       .  A
C2697      C2702   1.403       .  A
C2697      H2713   1.084       .  S
C2698      C2699   1.404       .  A
C2698      H2714   1.084       .  S
C2699      C2709   1.402       .  A
C2699      C2700   1.410       .  A
C2700      C2706   1.413       .  A
C2700      C2701   1.413       .  A
C2701      C2703   1.410       .  A
C2701      C2702   1.413       .  A
C2702      C2710   1.404       .  A
C2703      C2712   1.404       .  A
C2703      C2704   1.405       .  A
C2704      C2705   1.400       .  A
C2704      H2715   1.084       .  S
C2705      C2706   1.404       .  A
C2705      H2716   1.084       .  S
C2706      C2707   1.406       .  A
C2707      C2708   1.408       .  A
C2707      H2717   1.084       .  S
C2708      C2709   1.409       .  A
C2709      H2718   1.084       .  S
C2710      C2711   1.406       .  A
C2710      H2719   1.084       .  S
C2711      C2712   1.410       .  A
C2712      H2720   1.084       .  S
C2721      C2722   1.409       .  A
C2721      C2726   1.408       .  A
C2721      H2737   1.083       .  S
C2722      C2723   1.407       .  A
C2722      H2738   1.083       .  S
C2723      C2733   1.423       .  A
C2723      C2724   1.414   1_554  A
C2724      C2730   1.408       .  A
C2724      C2725   1.421       .  A
C2725      C2727   1.413       .  A
C2725      C2726   1.412   1_556  A
C2726      C2734   1.418       .  A
C2727      C2736   1.405       .  A
C2727      C2728   1.402       .  A
C2728      C2729   1.398       .  A
C2728      H2739   1.084       .  S
C2729      C2730   1.404       .  A
C2729      H2740   1.084       .  S
C2730      C2731   1.402       .  A
C2731      C2732   1.414       .  A
C2731      H2741   1.084       .  S
C2732      C2733   1.415   1_556  A
C2733      H2742   1.083       .  S
C2734      C2735   1.412   1_554  A
C2734      H2743   1.084       .  S
C2735      C2736   1.404       .  A
C2736      H2744   1.085       .  S
C2745      C2746   1.398       .  A
C2745      C2750   1.404       .  A
C2745      H2761   1.084       .  S
C2746      C2747   1.403       .  A
C2746      H2762   1.084       .  S
C2747      C2757   1.403       .  A
C2747      C2748   1.413       .  A
C2748      C2754   1.411       .  A
C2748      C2749   1.413       .  A
C2749      C2751   1.414       .  A
C2749      C2750   1.410       .  A
C2750      C2758   1.399       .  A
C2751      C2760   1.408       .  A
C2751      C2752   1.404       .  A
C2752      C2753   1.401       .  A
C2752      H2763   1.083       .  S
C2753      C2754   1.405       .  A
C2753      H2764   1.083       .  S
C2754      C2755   1.406       .  A
C2755      C2756   1.408       .  A
C2755      H2765   1.084       .  S
C2756      C2757   1.404       .  A
C2757      H2766   1.085       .  S
C2758      C2759   1.409       .  A
C2758      H2767   1.085       .  S
C2759      C2760   1.406       .  A
C2760      H2768   1.084       .  S
C2769      C2770   1.400       .  A
C2769      C2774   1.405       .  A
C2769      H2785   1.084       .  S
C2770      C2771   1.404       .  A
C2770      H2786   1.084       .  S
C2771      C2781   1.408       .  A
C2771      C2772   1.412       .  A
C2772      C2778   1.412       .  A
C2772      C2773   1.421       .  A
C2773      C2775   1.414       .  A
C2773      C2774   1.409       .  A
C2774      C2782   1.405       .  A
C2775      C2784   1.419       .  A
C2775      C2776   1.406       .  A
C2776      C2777   1.406       .  A
C2776      H2787   1.083       .  S
C2777      C2778   1.406       .  A
C2777      H2788   1.083       .  S
C2778      C2779   1.416       .  A
C2779      C2780   1.410       .  A
C2779      H2789   1.084       .  S
C2780      C2781   1.408       .  A
C2781      H2790   1.085       .  S
C2782      C2783   1.416       .  A
C2782      H2791   1.084       .  S
C2783      C2784   1.413       .  A
C2784      H2792   1.084       .  S
C2793      C2794   1.397       .  A
C2793      C2798   1.403       .  A
C2793      H2809   1.084       .  S
C2794      C2795   1.403       .  A
C2794      H2810   1.084       .  S
C2795      C2805   1.400       .  A
C2795      C2796   1.412       .  A
C2796      C2802   1.412       .  A
C2796      C2797   1.410       .  A
C2797      C2799   1.412       .  A
C2797      C2798   1.411       .  A
C2798      C2806   1.399       .  A
C2799      C2808   1.403       .  A
C2799      C2800   1.404       .  A
C2800      C2801   1.399       .  A
C2800      H2811   1.084       .  S
C2801      C2802   1.403       .  A
C2801      H2812   1.084       .  S
C2802      C2803   1.403       .  A
C2803      C2804   1.404       .  A
C2803      H2813   1.084       .  S
C2804      C2805   1.404       .  A
C2805      H2814   1.085       .  S
C2806      C2807   1.404       .  A
C2806      H2815   1.085       .  S
C2807      C2808   1.405       .  A
C2808      H2816   1.084       .  S
C2817      C2818   1.405   1_565  A
C2817      C2822   1.406       .  A
C2817      H2833   1.083       .  S
C2818      C2819   1.406       .  A
C2818      H2834   1.083       .  S
C2819      C2829   1.416       .  A
C2819      C2820   1.414       .  A
C2820      C2826   1.409       .  A
C2820      C2821   1.419       .  A
C2821      C2823   1.413   1_655  A
C2821      C2822   1.411   1_545  A
C2822      C2830   1.412   1_655  A
C2823      C2832   1.407   1_545  A
C2823      C2824   1.403       .  A
C2824      C2825   1.399   1_455  A
C2824      H2835   1.084       .  S
C2825      C2826   1.404       .  A
C2825      H2836   1.084       .  S
C2826      C2827   1.404       .  A
C2827      C2828   1.412       .  A
C2827      H2837   1.084       .  S
C2828      C2829   1.412       .  A
C2829      H2838   1.084       .  S
C2830      C2831   1.410       .  A
C2830      H2839   1.084       .  S
C2831      C2832   1.404       .  A
C2832      H2840   1.085       .  S
C2841      C2842   1.395   1_455  A
C2841      C2846   1.401       .  A
C2841      H2857   1.084       .  S
C2842      C2843   1.402       .  A
C2842      H2858   1.084       .  S
C2843      C2853   1.395       .  A
C2843      C2844   1.411   1_655  A
C2844      C2850   1.412       .  A
C2844      C2845   1.408       .  A
C2845      C2847   1.412       .  A
C2845      C2846   1.412       .  A
C2846      C2854   1.396       .  A
C2847      C2856   1.401       .  A
C2847      C2848   1.404       .  A
C2848      C2849   1.399       .  A
C2848      H2859   1.084       .  S
C2849      C2850   1.403       .  A
C2849      H2860   1.084       .  S
C2850      C2851   1.402   1_455  A
C2851      C2852   1.406       .  A
C2851      H2861   1.084       .  S
C2852      C2853   1.404       .  A
C2853      H2862   1.084       .  S
C2854      C2855   1.402       .  A
C2854      H2863   1.085       .  S
C2855      C2856   1.404       .  A
C2856      H2864   1.085       .  S
C2865      C2866   1.400       .  A
C2865      C2870   1.404       .  A
C2865      H2881   1.083       .  S
C2866      C2867   1.403       .  A
C2866      H2882   1.083       .  S
C2867      C2877   1.408       .  A
C2867      C2868   1.414       .  A
C2868      C2874   1.410       .  A
C2868      C2869   1.415       .  A
C2869      C2871   1.413       .  A
C2869      C2870   1.411       .  A
C2870      C2878   1.404       .  A
C2871      C2880   1.408       .  A
C2871      C2872   1.404       .  A
C2872      C2873   1.401       .  A
C2872      H2883   1.084       .  S
C2873      C2874   1.405       .  A
C2873      H2884   1.084       .  S
C2874      C2875   1.404       .  A
C2875      C2876   1.409       .  A
C2875      H2885   1.085       .  S
C2876      C2877   1.405       .  A
C2877      H2886   1.084       .  S
C2878      C2879   1.407       .  A
C2878      H2887   1.085       .  S
C2879      C2880   1.406       .  A
C2880      H2888   1.084       .  S
C2889      C2890   1.399       .  A
C2889      C2894   1.404       .  A
C2889      H2905   1.084       .  S
C2890      C2891   1.404       .  A
C2890      H2906   1.084       .  S
C2891      C2901   1.403       .  A
C2891      C2892   1.412       .  A
C2892      C2898   1.411       .  A
C2892      C2893   1.410       .  A
C2893      C2895   1.412       .  A
C2893      C2894   1.413       .  A
C2894      C2902   1.403       .  A
C2895      C2904   1.398       .  A
C2895      C2896   1.402       .  A
C2896      C2897   1.396       .  A
C2896      H2907   1.084       .  S
C2897      C2898   1.403       .  A
C2897      H2908   1.084       .  S
C2898      C2899   1.398       .  A
C2899      C2900   1.406       .  A
C2899      H2909   1.084       .  S
C2900      C2901   1.406       .  A
C2901      H2910   1.084       .  S
C2902      C2903   1.405       .  A
C2902      H2911   1.085       .  S
C2903      C2904   1.405       .  A
C2904      H2912   1.085       .  S
C2913      C2914   1.400       .  A
C2913      C2918   1.404       .  A
C2913      H2929   1.084       .  S
C2914      C2915   1.403       .  A
C2914      H2930   1.083       .  S
C2915      C2925   1.409       .  A
C2915      C2916   1.416       .  A
C2916      C2922   1.409       .  A
C2916      C2917   1.414       .  A
C2917      C2919   1.415       .  A
C2917      C2918   1.410       .  A
C2918      C2926   1.402       .  A
C2919      C2928   1.406       .  A
C2919      C2920   1.403       .  A
C2920      C2921   1.399       .  A
C2920      H2931   1.084       .  S
C2921      C2922   1.404       .  A
C2921      H2932   1.084       .  S
C2922      C2923   1.400       .  A
C2923      C2924   1.407       .  A
C2923      H2933   1.085       .  S
C2924      C2925   1.404       .  A
C2925      H2934   1.084       .  S
C2926      C2927   1.406       .  A
C2926      H2935   1.085       .  S
C2927      C2928   1.402       .  A
C2928      H2936   1.084       .  S
C2937      C2938   1.402       .  A
C2937      C2942   1.405       .  A
C2937      H2953   1.083       .  S
C2938      C2939   1.404   1_545  A
C2938      H2954   1.083       .  S
C2939      C2949   1.412       .  A
C2939      C2940   1.414       .  A
C2940      C2946   1.410   1_554  A
C2940      C2941   1.420   1_565  A
C2941      C2943   1.414   1_554  A
C2941      C2942   1.409       .  A
C2942      C2950   1.408       .  A
C2943      C2952   1.414       .  A
C2943      C2944   1.405       .  A
C2944      C2945   1.403   1_545  A
C2944      H2955   1.083       .  S
C2945      C2946   1.405       .  A
C2945      H2956   1.083       .  S
C2946      C2947   1.408       .  A
C2947      C2948   1.410   1_556  A
C2947      H2957   1.085       .  S
C2948      C2949   1.407       .  A
C2949      H2958   1.084       .  S
C2950      C2951   1.413       .  A
C2950      H2959   1.084       .  S
C2951      C2952   1.410   1_554  A
C2952      H2960   1.084       .  S
C2961      C2962   1.400       .  A
C2961      C2966   1.405       .  A
C2961      H2977   1.084       .  S
C2962      C2963   1.403       .  A
C2962      H2978   1.084       .  S
C2963      C2973   1.409       .  A
C2963      C2964   1.413       .  A
C2964      C2970   1.412   1_556  A
C2964      C2965   1.421       .  A
C2965      C2967   1.414   1_556  A
C2965      C2966   1.409       .  A
C2966      C2974   1.405   1_455  A
C2967      C2976   1.419       .  A
C2967      C2968   1.406       .  A
C2968      C2969   1.406       .  A
C2968      H2979   1.083       .  S
C2969      C2970   1.407       .  A
C2969      H2980   1.083       .  S
C2970      C2971   1.415       .  A
C2971      C2972   1.411   1_554  A
C2971      H2981   1.084       .  S
C2972      C2973   1.406       .  A
C2973      H2982   1.085       .  S
C2974      C2975   1.413       .  A
C2974      H2983   1.084       .  S
C2975      C2976   1.413   1_656  A
C2976      H2984   1.084       .  S
C2985      C2986   1.398       .  A
C2985      C2990   1.403       .  A
C2985      H3001   1.084       .  S
C2986      C2987   1.403       .  A
C2986      H3002   1.084       .  S
C2987      C2997   1.403       .  A
C2987      C2988   1.413       .  A
C2988      C2994   1.412       .  A
C2988      C2989   1.411       .  A
C2989      C2991   1.412       .  A
C2989      C2990   1.412       .  A
C2990      C2998   1.402       .  A
C2991      C3000   1.402       .  A
C2991      C2992   1.403       .  A
C2992      C2993   1.399       .  A
C2992      H3003   1.084       .  S
C2993      C2994   1.404       .  A
C2993      H3004   1.084       .  S
C2994      C2995   1.401       .  A
C2995      C2996   1.405       .  A
C2995      H3005   1.085       .  S
C2996      C2997   1.403       .  A
C2997      H3006   1.084       .  S
C2998      C2999   1.405       .  A
C2998      H3007   1.084       .  S
C2999      C3000   1.406       .  A
C3000      H3008   1.085       .  S
