geometry optimzed in LAMMPS
_audit_creation_date              2020-12-01 
_audit_creation_method            'lammps2cif' 
_symmetry_space_group_name_H-M    'P1' 
_symmetry_Int_Tables_number       1 
_symmetry_cell_setting            triclinic 
loop_ 
_symmetry_equiv_pos_as_xyz 
  x,y,z 
_cell_length_a                    40.4296492 
_cell_length_b                    34.87745661525899 
_cell_length_c                    44.73510857892699 
_cell_angle_alpha                 90.0436767675577 
_cell_angle_beta                  110.06678638317676 
_cell_angle_gamma                 89.97341203013241 
loop_ 
_atom_site_label 
_atom_site_type_symbol 
_atom_site_fract_x 
_atom_site_fract_y 
_atom_site_fract_z 
_atom_site_charge 
O1          O  0.36983522  0.53612140  0.42385206    -0.86800
O2          O  0.30046056  0.55038258  0.39425994    -0.83900
C3          C  0.27447245  0.57082205  0.37905099     0.96600
O4          O  0.27641888  0.59454100  0.35828302    -0.83900
O5          O  0.33010798  0.65253766  0.37234054    -0.86600
C6          C  0.35990165  0.66741324  0.37637361     1.01100
O7          O  0.38492029  0.64627445  0.37608391    -0.79300
O8          O  0.38909325  0.59570328  0.42591599    -0.79500
C9          C  0.38064483  0.56702268  0.43929726     1.01100
O10         O  0.37220753  0.50318681  0.36391626    -0.86800
O11         O  0.30172079  0.51728937  0.33633956    -0.83900
C12         C  0.29180732  0.53510041  0.31017388     0.96600
O13         O  0.29885045  0.56988704  0.30856735    -0.83900
O14         O  0.34826418  0.62385350  0.31970158    -0.86500
C15         C  0.37229589  0.60351501  0.31548866     1.01100
O16         O  0.39395515  0.58507283  0.33854769    -0.79400
O17         O  0.41420863  0.53876701  0.39401352    -0.79500
C18         C  0.40433385  0.50774661  0.37942081     1.01100
Cr19       Cr  0.33697360  0.53033511  0.37868402     1.93700
Cr20       Cr  0.31590179  0.60791511  0.34236311     1.93200
Cr21       Cr  0.39234726  0.59045336  0.38259475     1.39100
O22         O  0.34766512  0.57625302  0.36786394    -1.24600
O23         O  0.38163798  0.53598524  0.08164262    -0.86800
O24         O  0.45065783  0.55170290  0.11210960    -0.83900
C25         C  0.47636567  0.57208769  0.12811485     0.96600
O26         O  0.47353606  0.59564601  0.14866959    -0.83900
O27         O  0.41912519  0.65327506  0.13225584    -0.86600
C28         C  0.38899084  0.66783770  0.12736889     1.01100
O29         O  0.36395489  0.64642206  0.12697891    -0.79300
O30         O  0.36246939  0.59549743  0.07811940    -0.79500
C31         C  0.37252348  0.56682936  0.06584068     1.01100
O32         O  0.37787364  0.50404925  0.14120124    -0.86800
O33         O  0.44820168  0.51906263  0.16947327    -0.83900
C34         C  0.45712282  0.53676070  0.19563507     0.96600
O35         O  0.44918399  0.57133908  0.19720253    -0.83900
O36         O  0.39901862  0.62535407  0.18393307    -0.86500
C37         C  0.37496554  0.60470085  0.18769117     1.01100
O38         O  0.35387647  0.58602646  0.16439521    -0.85800
O39         O  0.33602377  0.53864228  0.10966425    -0.79500
C40         C  0.34576926  0.50822974  0.12524556     1.01100
Cr41       Cr  0.41359377  0.53120832  0.12692517     1.93700
Cr42       Cr  0.43284125  0.60913413  0.16291118     1.93200
Cr43       Cr  0.35718192  0.59069619  0.12083645     1.39100
O44         O  0.40194737  0.57703381  0.13701450    -1.24600
O45         O  0.11017908  0.40469584  0.07788511    -0.86800
O46         O  0.11248615  0.35311751  0.12637281    -0.83900
C47         C  0.13692239  0.33149872  0.12543988     0.96600
O48         O  0.16707212  0.34570724  0.12979669    -0.83900
O49         O  0.22270917  0.40216674  0.14620158    -0.86600
C50         C  0.22507927  0.42567838  0.12544012     1.01100
O51         O  0.19900880  0.44559475  0.10958942    -0.79300
O52         O  0.13035782  0.46377445  0.08130569    -0.79500
C53         C  0.12011068  0.43317664  0.06538032     1.01100
O54         O  0.08651339  0.46177297  0.11119894    -0.86800
O55         O  0.10470118  0.41334380  0.16527892    -0.83900
C56         C  0.12566095  0.39368526  0.18793686     0.96600
O57         O  0.14930224  0.37300492  0.18332605    -0.83900
O58         O  0.20005347  0.42590366  0.19586773    -0.86500
C59         C  0.20915326  0.46004960  0.19441389     1.01100
O60         O  0.20019125  0.47805657  0.16835308    -0.79400
O61         O  0.12973051  0.49571852  0.14180452    -0.79500
C62         C  0.09733734  0.49213077  0.12657922     1.01100
Cr63       Cr  0.10656926  0.40916865  0.12118012     1.93700
Cr64       Cr  0.18237705  0.38894573  0.16122575     1.93200
Cr65       Cr  0.16383126  0.46736550  0.12615037     1.39100
O66         O  0.15159234  0.42188901  0.13637417    -1.24600
O67         O  0.13852107  0.40201457  0.42640326    -0.86800
O68         O  0.13587246  0.35106329  0.37689668    -0.83900
C69         C  0.11123493  0.32966500  0.37742793     0.96600
O70         O  0.08144786  0.34425710  0.37379168    -0.83900
O71         O  0.02694198  0.40105961  0.35941353    -0.86600
C72         C  0.02459020  0.42569025  0.37941297     1.01100
O73         O  0.05013796  0.44706158  0.39395309    -0.79300
O74         O  0.11935420  0.46169060  0.42345146    -0.79500
C75         C  0.12958693  0.43097077  0.43922651     1.01100
O76         O  0.16396305  0.45850226  0.39448012    -0.86800
O77         O  0.14431085  0.41146155  0.33912817    -0.83900
C78         C  0.12275029  0.39278040  0.31607085     0.96600
O79         O  0.09856704  0.37256714  0.32020840    -0.83900
O80         O  0.04760264  0.42531919  0.30875110    -0.86500
C81         C  0.04070010  0.46022895  0.31015691     1.01100
O82         O  0.05165917  0.47867500  0.33597390    -0.79400
O83         O  0.12211470  0.49345169  0.36350571    -0.79500
C84         C  0.15416263  0.48926682  0.37953411     1.01100
Cr85       Cr  0.14245782  0.40674639  0.38319593     1.93700
Cr86       Cr  0.06619718  0.38811314  0.34314069     1.93200
Cr87       Cr  0.08675125  0.46661174  0.37831802     1.39100
O88         O  0.09768512  0.42053153  0.36805069    -1.24600
O89         O  0.38942451  0.90308443  0.17657199    -0.86800
O90         O  0.38613944  0.85257224  0.12716386    -0.83900
C91         C  0.36141356  0.83098228  0.12739403     0.96600
O92         O  0.33135753  0.84534049  0.12331246    -0.83900
O93         O  0.27641293  0.90267470  0.10781989    -0.86600
C94         C  0.27452468  0.92524185  0.12938948     1.01100
O95         O  0.30095598  0.94432681  0.14571045    -0.79300
O96         O  0.36958686  0.96228654  0.17419261    -0.79500
C97         C  0.38031913  0.93153635  0.18974545     1.01100
O98         O  0.41325059  0.96076567  0.14385802    -0.86800
O99         O  0.39441325  0.91335993  0.08903338    -0.83900
C100        C  0.37330388  0.89399852  0.06623177     0.96600
O101        O  0.34968609  0.87332825  0.07074463    -0.83900
O102        O  0.29998746  0.92732416  0.05882608    -0.86500
C103        C  0.29073198  0.96130097  0.06082013     1.01100
O104        O  0.29942212  0.97855525  0.08726474    -0.79400
O105        O  0.37017952  0.99572375  0.11423952    -0.79500
C106        C  0.40257991  0.99168427  0.12931503     1.01100
Cr107      Cr  0.39272686  0.90840550  0.13317555     1.93700
Cr108      Cr  0.31674052  0.88941236  0.09278188     1.93200
Cr109      Cr  0.33596713  0.96681858  0.12937130     1.39100
O110        O  0.34785545  0.92159558  0.11830281    -1.24600
O111        O  0.36050020  0.90315401  0.32811728    -0.86800
O112        O  0.36260029  0.85151447  0.37672781    -0.83900
C113        C  0.38743378  0.83031259  0.37613589     0.96600
O114        O  0.41744731  0.84494050  0.38079724    -0.83900
O115        O  0.47206550  0.90161678  0.39627826    -0.86600
C116        C  0.47453783  0.92562687  0.37592279     1.01100
O117        O  0.44898293  0.94683599  0.36101268    -0.79300
O118        O  0.37985723  0.96261768  0.33173440    -0.79500
C119        C  0.37038382  0.93186911  0.31580328     1.01100
O120        O  0.33515491  0.95978181  0.36069184    -0.86800
O121        O  0.35392058  0.91183227  0.41513042    -0.83900
C122        C  0.37531464  0.89296389  0.43808856     0.96600
O123        O  0.39931149  0.87254711  0.43387355    -0.83900
O124        O  0.45016069  0.92572690  0.44643460    -0.86500
C125        C  0.45801934  0.96036306  0.44513299     1.01100
O126        O  0.44801829  0.97865057  0.41921752    -0.79400
O127        O  0.37744584  0.99419320  0.39190422    -0.79500
C128        C  0.34523664  0.99017296  0.37624629     1.01100
Cr129      Cr  0.35620071  0.90755660  0.37121305     1.93700
Cr130      Cr  0.43226015  0.88854062  0.41180065     1.93200
Cr131      Cr  0.41258651  0.96703880  0.37681594     1.39100
O132        O  0.40108677  0.92107891  0.38678765    -1.24600
O133        O  0.11904632  0.03645617  0.17382180    -0.86800
O134        O  0.04951651  0.05092770  0.14396386    -0.83900
C135        C  0.02379565  0.07174305  0.12866537     0.96600
O136        O  0.02629390  0.09563164  0.10822551    -0.83900
O137        O  0.08041668  0.15338966  0.12282760    -0.86600
C138        C  0.11018780  0.16812977  0.12646884     1.01100
O139        O  0.13519143  0.14663625  0.12681586    -0.79300
O140        O  0.13821297  0.09606041  0.17654947    -0.79500
C141        C  0.12905478  0.06735023  0.18943875     1.01100
O142        O  0.12207366  0.00379798  0.11419575    -0.86800
O143        O  0.05151831  0.01822052  0.08630908    -0.83900
C144        C  0.04167151  0.03611263  0.06020376     0.96600
O145        O  0.04895175  0.07086993  0.05866622    -0.83900
O146        O  0.09881557  0.12470384  0.07043457    -0.86500
C147        C  0.12278102  0.10425793  0.06625503     1.01100
O148        O  0.14435078  0.08571746  0.08936535    -0.79400
O149        O  0.16399335  0.03907133  0.14479249    -0.79500
C150        C  0.15421523  0.00822719  0.12985696     1.01100
Cr151      Cr  0.08650424  0.03095492  0.12870770     1.93700
Cr152      Cr  0.06608033  0.10881693  0.09268142     1.93200
Cr153      Cr  0.14227383  0.09087913  0.13338100     1.39100
O154        O  0.09753316  0.07689384  0.11819709    -1.24600
O155        O  0.12940877  0.03527560  0.33143862    -0.86800
O156        O  0.19824368  0.05198210  0.36101667    -0.83900
C157        C  0.22439518  0.07144051  0.37739582     0.96600
O158        O  0.22203491  0.09441602  0.39850232    -0.83900
O159        O  0.16762763  0.15194801  0.38144106    -0.86600
C160        C  0.13758029  0.16670204  0.37658736     1.01100
O161        O  0.11255635  0.14564733  0.37693787    -0.79300
O162        O  0.10963164  0.09454200  0.32824727    -0.79500
C163        C  0.11932323  0.06599438  0.31562031     1.01100
O164        O  0.12709845  0.00286374  0.39125875    -0.86800
O165        O  0.19753830  0.01909339  0.41917551    -0.83900
C166        C  0.20598018  0.03662542  0.44547138     0.96600
O167        O  0.19729557  0.07092796  0.44705522    -0.83900
O168        O  0.14773565  0.12545856  0.43361528    -0.86500
C169        C  0.12407257  0.10480720  0.43804092     1.01100
O170        O  0.10297861  0.08553307  0.41519054    -0.79400
O171        O  0.08457117  0.03765328  0.36070727    -0.79500
C172        C  0.09488506  0.00688084  0.37560799     1.01100
Cr173      Cr  0.16210596  0.03073809  0.37659793     1.93700
Cr174      Cr  0.18132129  0.10845696  0.41259001     1.93200
Cr175      Cr  0.10548518  0.08987138  0.37132661     1.39100
O176        O  0.15029012  0.07631500  0.38694957    -1.24600
C177        C  0.12414182  0.10300390  0.23696822    -0.14800
C178        C  0.12897330  0.06857751  0.22254963     0.07300
C179        C  0.12937187  0.03387950  0.23856504    -0.14800
C180        C  0.12511445  0.03335970  0.26814990    -0.14800
C181        C  0.12008841  0.06751726  0.28269506     0.07300
C182        C  0.11961060  0.10246944  0.26680052    -0.14800
H183        H  0.12303473  0.13010975  0.22488150     0.11300
H184        H  0.13275310  0.00681736  0.22806002     0.11300
H185        H  0.12592000  0.00593823  0.27972620     0.11300
H186        H  0.11629003  0.12931585  0.27761161     0.11300
C187        C  0.15499079  0.10209559  0.99635408    -0.14800
C188        C  0.12317478  0.10307605  0.47062895     0.07300
C189        C  0.09147799  0.10204073  0.47656515    -0.14800
C190        C  0.09162066  0.10311278  0.00769703    -0.14800
C191        C  0.12366488  0.10228412  0.03362755     0.07300
C192        C  0.15536758  0.10104042  0.02770008    -0.14800
H193        H  0.17997869  0.10504981  0.49242921     0.11300
H194        H  0.06651423  0.10199343  0.45706423     0.11300
H195        H  0.06680127  0.10447030  0.01172749     0.11300
H196        H  0.18030468  0.10073766  0.04719392     0.11300
C197        C  0.48819459  0.01852289  0.47417476    -0.14800
C198        C  0.47971065  0.97961632  0.47456697     0.07300
C199        C  0.99245951  0.95897285  0.50331538    -0.14800
C200        C  0.01255854  0.97743204  0.03104423    -0.14800
C201        C  0.02075155  0.01643624  0.03072578     0.07300
C202        C  0.50827021  0.03685308  0.00193273    -0.14800
H203        H  0.47888833  0.03502494  0.45237651     0.11300
H204        H  0.98680416  0.92875610  0.50426672     0.11300
H205        H  0.02177266  0.96097550  0.05287290     0.11300
H206        H  0.51380378  0.06706131  0.00098243     0.11300
C207        C  0.31956850  0.04159871  0.40155079    -0.14800
C208        C  0.31864604  0.02007948  0.37471510     0.07300
C209        C  0.28909450  0.02324756  0.34681167    -0.14800
C210        C  0.25967160  0.04433953  0.34654433    -0.14800
C211        C  0.25892720  0.06256763  0.37428703     0.07300
C212        C  0.28981320  0.06269113  0.40135623    -0.14800
H213        H  0.34198726  0.03954720  0.42337115     0.11300
H214        H  0.28788374  0.00738055  0.32563857     0.11300
H215        H  0.23638010  0.04371694  0.32535125     0.11300
H216        H  0.28984163  0.07596713  0.42325130     0.11300
C217        C  0.04026510  0.93173053  0.39868845    -0.14800
C218        C  0.00890986  0.93351449  0.37213902     0.07300
C219        C  0.00928014  0.95314375  0.34488220    -0.14800
C220        C  0.03865006  0.97450220  0.34549712    -0.14800
C221        C  0.06851199  0.97648047  0.37323963     0.07300
C222        C  0.06997564  0.95311998  0.39923385    -0.14800
H223        H  0.04066918  0.91713925  0.42016680     0.11300
H224        H  0.48563745  0.95498143  0.32401023     0.11300
H225        H  0.03709157  0.99163424  0.32486949     0.11300
H226        H  0.09273754  0.95402526  0.42084583     0.11300
C227        C  0.25829827  0.01877125  0.03223880    -0.14800
C228        C  0.26890396  0.98064249  0.03151321     0.07300
C229        C  0.25829833  0.96075726  0.00238276    -0.14800
C230        C  0.23754645  0.97893348  0.47422495    -0.14800
C231        C  0.22701585  0.01709195  0.47498554     0.07300
C232        C  0.23740534  0.03681435  0.50418945    -0.14800
H233        H  0.26601986  0.03475246  0.05433058     0.11300
H234        H  0.26582210  0.93119287  0.00107960     0.11300
H235        H  0.22999514  0.96304171  0.45209537     0.11300
H236        H  0.23007068  0.06639056  0.50551903     0.11300
C237        C  0.34247889  0.89299816  0.00760972    -0.14800
C238        C  0.37434915  0.89528494  0.03362114     0.07300
C239        C  0.40609900  0.89770704  0.02781593    -0.14800
C240        C  0.40594464  0.89658208  0.99652904    -0.14800
C241        C  0.37417285  0.89479417  0.47060598     0.07300
C242        C  0.34235483  0.89381607  0.47635690    -0.14800
H243        H  0.31755567  0.89084007  0.01154901     0.11300
H244        H  0.43091662  0.89922731  0.04737531     0.11300
H245        H  0.43090917  0.89717444  0.99260516     0.11300
H246        H  0.31754488  0.89218842  0.45677858     0.11300
C247        C  0.37516470  0.89553875  0.23688074    -0.14800
C248        C  0.38100423  0.92995956  0.22305116     0.07300
C249        C  0.38288276  0.96437980  0.23980262    -0.14800
C250        C  0.37865009  0.96468628  0.26941081    -0.14800
C251        C  0.37206942  0.93059222  0.28316710     0.07300
C252        C  0.37061071  0.89586466  0.26669776    -0.14800
H253        H  0.37303094  0.86866351  0.22423841     0.11300
H254        H  0.38720672  0.99138402  0.22976501     0.11300
H255        H  0.38046238  0.99191479  0.28150982     0.11300
H256        H  0.36623145  0.86904963  0.27693041     0.11300
C257        C  0.45880179  0.02420584  0.15924501    -0.14800
C258        C  0.42896456  0.02206088  0.13146409     0.07300
C259        C  0.42799322  0.04448775  0.10510758    -0.14800
C260        C  0.45802977  0.06517947  0.10546407    -0.14800
C261        C  0.48927028  0.06365093  0.13217400     0.07300
C262        C  0.48854754  0.04476030  0.15962975    -0.14800
H263        H  0.46005493  0.00767155  0.18009334     0.11300
H264        H  0.40535892  0.04329917  0.08340345     0.11300
H265        H  0.45790805  0.07909988  0.08379854     0.11300
H266        H  0.01211096  0.04308234  0.18061641     0.11300
C267        C  0.24036575  0.95501727  0.16012091    -0.14800
C268        C  0.24027443  0.93443326  0.13309228     0.07300
C269        C  0.20869000  0.93246326  0.10679471    -0.14800
C270        C  0.17914606  0.95417727  0.10633898    -0.14800
C271        C  0.18100023  0.97823865  0.13208748     0.07300
C272        C  0.21125049  0.97687171  0.15950911    -0.14800
H273        H  0.26410677  0.95699810  0.18081381     0.11300
H274        H  0.20786370  0.91716467  0.08548015     0.11300
H275        H  0.15607365  0.95457947  0.08496770     0.11300
H276        H  0.21319110  0.99455478  0.17995282     0.11300
C277        C  0.15198187  0.27412697  0.38232159    -0.14800
C278        C  0.11781150  0.28779466  0.37855410     0.07300
C279        C  0.09029300  0.26141537  0.37242710    -0.14800
C280        C  0.09676813  0.22232770  0.37031427    -0.14800
C281        C  0.13100417  0.20858861  0.37447047     0.07300
C282        C  0.15848654  0.23499429  0.38030015    -0.14800
H283        H  0.17383764  0.29375122  0.38668492     0.11300
H284        H  0.06367439  0.27099385  0.36883749     0.11300
H285        H  0.07486848  0.20275321  0.36591070     0.11300
H286        H  0.18510640  0.22539386  0.38394388     0.11300
C287        C  0.09615975  0.27605458  0.12155445    -0.14800
C288        C  0.12971848  0.28961732  0.12307818     0.07300
C289        C  0.15631827  0.26289035  0.12570661    -0.14800
C290        C  0.14981525  0.22371105  0.12747229    -0.14800
C291        C  0.11650418  0.21015206  0.12666884     0.07300
C292        C  0.08965900  0.23683056  0.12335226    -0.14800
H293        H  0.07492929  0.29584676  0.11960327     0.11300
H294        H  0.18236483  0.27225952  0.12705347     0.11300
H295        H  0.17109501  0.20397473  0.12943339     0.11300
H296        H  0.06364891  0.22743281  0.12208799     0.11300
C297        C  0.12764849  0.46535894  0.01842553    -0.14800
C298        C  0.12114102  0.43155026  0.03258395     0.07300
C299        C  0.11932616  0.39655794  0.01641756    -0.14800
C300        C  0.12398811  0.39606096  0.48656535    -0.14800
C301        C  0.12997583  0.43014520  0.47243264     0.07300
C302        C  0.13182906  0.46490503  0.48877768    -0.14800
H303        H  0.12965463  0.49272358  0.03027382     0.11300
H304        H  0.11493512  0.36995012  0.02698680     0.11300
H305        H  0.12178487  0.36899962  0.47421349     0.11300
H306        H  0.13617708  0.49170349  0.47844262     0.11300
C307        C  0.15609856  0.39398641  0.24668665    -0.14800
C308        C  0.12432042  0.39477719  0.22050776     0.07300
C309        C  0.09237096  0.39589705  0.22610386    -0.14800
C310        C  0.09225507  0.39498594  0.25734610    -0.14800
C311        C  0.12406318  0.39440939  0.28352161     0.07300
C312        C  0.15601865  0.39454362  0.27793649    -0.14800
H313        H  0.18116350  0.39310347  0.24294239     0.11300
H314        H  0.06760741  0.39640421  0.20640145     0.11300
H315        H  0.06718887  0.39494406  0.26108141     0.11300
H316        H  0.18076674  0.39397317  0.29762475     0.11300
C317        C  0.40884895  0.73652107  0.12907933    -0.14800
C318        C  0.38211796  0.70975420  0.12572444     0.07300
C319        C  0.34836140  0.72320360  0.12374042    -0.14800
C320        C  0.34159370  0.76234716  0.12525829    -0.14800
C321        C  0.36834908  0.78910456  0.12874221     0.07300
C322        C  0.40205955  0.77569331  0.13054737    -0.14800
H323        H  0.43508634  0.72721094  0.13094772     0.11300
H324        H  0.32705090  0.70339500  0.12139703     0.11300
H325        H  0.31534863  0.77163990  0.12338199     0.11300
H326        H  0.42333333  0.79554400  0.13285070     0.11300
C327        C  0.48275547  0.47712952  0.22510354    -0.14800
C328        C  0.47783739  0.51694005  0.22500435     0.07300
C329        C  0.49342470  0.53792079  0.25314850    -0.14800
C330        C  0.01387573  0.51946119  0.28084406    -0.14800
C331        C  0.01902838  0.47970660  0.28093064     0.07300
C332        C  0.00313911  0.45861744  0.25286025    -0.14800
H333        H  0.47086012  0.46026875  0.20375733     0.11300
H334        H  0.49023434  0.56872269  0.25369041     0.11300
H335        H  0.02582109  0.53638605  0.30212913     0.11300
H336        H  0.00640606  0.42784905  0.25232308     0.11300
C337        C  0.32020680  0.45583406  0.14973867    -0.14800
C338        C  0.31900033  0.47840632  0.12337364     0.07300
C339        C  0.28928637  0.47588936  0.09555620    -0.14800
C340        C  0.26006074  0.45423105  0.09493961    -0.14800
C341        C  0.25957441  0.43484841  0.12228347     0.07300
C342        C  0.29060662  0.43422057  0.14921786    -0.14800
H343        H  0.34277476  0.45731998  0.17148714     0.11300
H344        H  0.28783483  0.49254591  0.07471302     0.11300
H345        H  0.23666920  0.45531790  0.07385182     0.11300
H346        H  0.29086718  0.42008336  0.17084046     0.11300
C347        C  0.04181013  0.56372368  0.15228445    -0.14800
C348        C  0.01105026  0.56388443  0.12507166     0.07300
C349        C  0.01213853  0.54655170  0.09711773    -0.14800
C350        C  0.04180355  0.52605829  0.09721804    -0.14800
C351        C  0.07118131  0.52242880  0.12521849     0.07300
C352        C  0.07178045  0.54311010  0.15235120    -0.14800
H353        H  0.04154409  0.57627645  0.17434524     0.11300
H354        H  0.48895032  0.54616947  0.07586563     0.11300
H355        H  0.04083101  0.51075073  0.07585734     0.11300
H356        H  0.09401896  0.54059397  0.17426013     0.11300
C357        C  0.40119263  0.72325842  0.38819334    -0.14800
C358        C  0.36622752  0.70941463  0.37790787     0.07300
C359        C  0.33863558  0.73551763  0.36526391    -0.14800
C360        C  0.34584880  0.77453782  0.36321085    -0.14800
C361        C  0.38083620  0.78837579  0.37373413     0.07300
C362        C  0.40839599  0.76221853  0.38611081    -0.14800
H363        H  0.42314667  0.70382154  0.39777342     0.11300
H364        H  0.31155031  0.72569689  0.35637003     0.11300
H365        H  0.32393429  0.79403819  0.35369649     0.11300
H366        H  0.43550066  0.77200020  0.39503197     0.11300
C367        C  0.26360488  0.47623265  0.28062235    -0.14800
C368        C  0.27119050  0.51542992  0.28061259     0.07300
C369        C  0.25865608  0.53613388  0.25194296    -0.14800
C370        C  0.23881596  0.51807498  0.22381856    -0.14800
C371        C  0.23087241  0.47901226  0.22387968     0.07300
C372        C  0.24361489  0.45816626  0.25246158    -0.14800
H373        H  0.27299187  0.45958937  0.30232541     0.11300
H374        H  0.26380747  0.56652812  0.25119706     0.11300
H375        H  0.22937437  0.53480738  0.20215381     0.11300
H376        H  0.23814902  0.42782317  0.25312843     0.11300
C377        C  0.34160480  0.60218318  0.25687027    -0.14800
C378        C  0.37345513  0.60165434  0.28297968     0.07300
C379        C  0.40536721  0.60062965  0.27740438    -0.14800
C380        C  0.40541684  0.60175114  0.24620957    -0.14800
C381        C  0.37356872  0.60230614  0.22008803     0.07300
C382        C  0.34161932  0.60172938  0.22562733    -0.14800
H383        H  0.31662359  0.60312685  0.26067631     0.11300
H384        H  0.43016032  0.60034016  0.29708835     0.11300
H385        H  0.43044536  0.60226645  0.24250885     0.11300
H386        H  0.31685684  0.60229351  0.20594305     0.11300
C387        C  0.38535692  0.53435751  0.49001595    -0.14800
C388        C  0.38224010  0.56862203  0.47285778     0.07300
C389        C  0.37602582  0.60296009  0.48660489    -0.14800
C390        C  0.37258605  0.60284463  0.01674103    -0.14800
C391        C  0.37461064  0.56816820  0.03334367     0.07300
C392        C  0.38171685  0.53417794  0.01969848    -0.14800
H393        H  0.39015214  0.50744230  0.48009076     0.11300
H394        H  0.37309983  0.62971997  0.47370619     0.11300
H395        H  0.36791430  0.62961341  0.02692461     0.11300
H396        H  0.38412606  0.50701271  0.03195704     0.11300
C397        C  0.42943086  0.45402888  0.35601283    -0.14800
C398        C  0.43098269  0.47769174  0.38187735     0.07300
C399        C  0.46093074  0.47609029  0.40954700    -0.14800
C400        C  0.49019281  0.45444410  0.41028199    -0.14800
C401        C  0.49036234  0.43418433  0.38320696     0.07300
C402        C  0.45903617  0.43241392  0.35665420    -0.14800
H403        H  0.40661576  0.45476383  0.33443122     0.11300
H404        H  0.46256921  0.49356252  0.43003675     0.11300
H405        H  0.01386381  0.45642703  0.43104641     0.11300
H406        H  0.45855900  0.41753110  0.33525047     0.11300
C407        C  0.24055470  0.54147418  0.41008784    -0.14800
C408        C  0.24038553  0.56230008  0.38318648     0.07300
C409        C  0.20863256  0.56510447  0.35716500    -0.14800
C410        C  0.17894373  0.54375865  0.35668821    -0.14800
C411        C  0.18085775  0.51931547  0.38215928     0.07300
C412        C  0.21123561  0.52008776  0.40950025    -0.14800
H413        H  0.26445944  0.53888919  0.43056054     0.11300
H414        H  0.20777474  0.58064179  0.33596262     0.11300
H415        H  0.15573799  0.54382239  0.33543284     0.11300
H416        H  0.21317128  0.50212583  0.42976760     0.11300
O417        O  0.36973865  0.53629553  0.92381319    -0.86800
O418        O  0.30037869  0.55048738  0.89441885    -0.83900
C419        C  0.27433051  0.57087490  0.87928094     0.96600
O420        O  0.27615656  0.59466504  0.85851606    -0.83900
O421        O  0.32988588  0.65265205  0.87222909    -0.86600
C422        C  0.35968964  0.66745148  0.87617509     1.01100
O423        O  0.38462112  0.64625774  0.87577927    -0.79300
O424        O  0.38894131  0.59587823  0.92574106    -0.79500
C425        C  0.38061349  0.56721168  0.93920567     1.01100
O426        O  0.37187977  0.50317878  0.86388023    -0.86800
O427        O  0.30139532  0.51719467  0.83651657    -0.83900
C428        C  0.29123103  0.53502120  0.81037107     0.96600
O429        O  0.29817865  0.56982255  0.80869423    -0.83900
O430        O  0.34765598  0.62365528  0.81942822    -0.86500
C431        C  0.37184310  0.60347172  0.81531390     1.01100
O432        O  0.39351506  0.58503479  0.83835810    -0.79400
O433        O  0.41393514  0.53878427  0.89385647    -0.79500
C434        C  0.40402371  0.50774100  0.87930569     1.01100
Cr435      Cr  0.33675280  0.53038177  0.87873654     1.93700
Cr436      Cr  0.31549147  0.60792083  0.84236393     1.93200
Cr437      Cr  0.39203357  0.59047511  0.88239559     1.39100
O438        O  0.34734613  0.57627259  0.86779100    -1.24600
O439        O  0.38144979  0.53610410  0.58178279    -0.86800
O440        O  0.45038277  0.55237119  0.61198518    -0.83900
C441        C  0.47619645  0.57252731  0.62810454     0.96600
O442        O  0.47346261  0.59596451  0.64877424    -0.83900
O443        O  0.41898973  0.65353830  0.63204344    -0.86600
C444        C  0.38885455  0.66810726  0.62714283     1.01100
O445        O  0.36381669  0.64673007  0.62683040    -0.79300
O446        O  0.36213873  0.59555114  0.57811950    -0.79500
C447        C  0.37219057  0.56684913  0.56587824     1.01100
O448        O  0.37806034  0.50428088  0.64144900    -0.86800
O449        O  0.44836791  0.51980610  0.66957006    -0.83900
C450        C  0.45712963  0.53746154  0.69575340     0.96600
O451        O  0.44899985  0.57197813  0.69734188    -0.83900
O452        O  0.39889725  0.62611308  0.68381779    -0.86500
C453        C  0.37494882  0.60544567  0.68773470     1.01100
O454        O  0.35391400  0.58655715  0.66455919    -0.85800
O455        O  0.33602589  0.53884034  0.61006934    -0.79500
C456        C  0.34592618  0.50836622  0.62553191     1.01100
Cr457      Cr  0.41358069  0.53164094  0.62702796     1.93700
Cr458      Cr  0.43272151  0.60962657  0.66290038     1.93200
Cr459      Cr  0.35705812  0.59097919  0.62094121     1.39100
O460        O  0.40183806  0.57742627  0.63708608    -1.24600
O461        O  0.11029224  0.40493574  0.57787099    -0.86800
O462        O  0.11239010  0.35331819  0.62647016    -0.83900
C463        C  0.13665826  0.33159769  0.62536918     0.96600
O464        O  0.16675946  0.34571447  0.62941616    -0.83900
O465        O  0.22261730  0.40174657  0.64550095    -0.86600
C466        C  0.22521536  0.42592306  0.62528512     1.01100
O467        O  0.19946830  0.44665778  0.61003642    -0.79300
O468        O  0.13063266  0.46401341  0.58140958    -0.79500
C469        C  0.12029066  0.43345205  0.56542192     1.01100
O470        O  0.08648441  0.46185435  0.61105053    -0.86800
O471        O  0.10506334  0.41354436  0.66537016    -0.83900
C472        C  0.12613298  0.39395017  0.68803398     0.96600
O473        O  0.14972739  0.37319779  0.68338874    -0.83900
O474        O  0.20095326  0.42541118  0.69573003    -0.86500
C475        C  0.20925148  0.45989240  0.69455038     1.01100
O476        O  0.19973313  0.47834453  0.66870921    -0.79400
O477        O  0.12947873  0.49561473  0.64201454    -0.79500
C478        C  0.09714433  0.49208472  0.62663084     1.01100
Cr479      Cr  0.10670319  0.40934168  0.62119517     1.93700
Cr480      Cr  0.18256581  0.38880713  0.66092449     1.93200
Cr481      Cr  0.16382954  0.46767842  0.62639219     1.39100
O482        O  0.15175732  0.42199080  0.63634495    -1.24600
O483        O  0.13803210  0.40144301  0.92632755    -0.86800
O484        O  0.13543948  0.35065529  0.87675126    -0.83900
C485        C  0.11066157  0.32933495  0.87708525     0.96600
O486        O  0.08083966  0.34402113  0.87317761    -0.83900
O487        O  0.02662113  0.40122768  0.85890689    -0.86600
C488        C  0.02424716  0.42580024  0.87895419     1.01100
O489        O  0.04981400  0.44709827  0.89360191    -0.79300
O490        O  0.11907688  0.46120480  0.92347106    -0.79500
C491        C  0.12920769  0.43042741  0.93918887     1.01100
O492        O  0.16396730  0.45796923  0.89482757    -0.86800
O493        O  0.14448170  0.41123960  0.83932635    -0.83900
C494        C  0.12293811  0.39278965  0.81610824     0.96600
O495        O  0.09857138  0.37266371  0.82001758    -0.83900
O496        O  0.04774705  0.42570045  0.80852008    -0.86500
C497        C  0.04095588  0.46062769  0.81004974     1.01100
O498        O  0.05192232  0.47891132  0.83593306    -0.79400
O499        O  0.12234581  0.49305519  0.86372618    -0.79500
C500        C  0.15433380  0.48875235  0.87986092     1.01100
Cr501      Cr  0.14225670  0.40632120  0.88325554     1.93700
Cr502      Cr  0.06600049  0.38819901  0.84276537     1.93200
Cr503      Cr  0.08673278  0.46644863  0.87828702     1.39100
O504        O  0.09753620  0.42034364  0.86795508    -1.24600
O505        O  0.38928197  0.90325367  0.67639734    -0.86800
O506        O  0.38627702  0.85279279  0.62701519    -0.83900
C507        C  0.36159329  0.83121794  0.62733386     0.96600
O508        O  0.33159037  0.84559535  0.62340261    -0.83900
O509        O  0.27658234  0.90271087  0.60798982    -0.86600
C510        C  0.27466746  0.92555734  0.62937579     1.01100
O511        O  0.30097773  0.94499792  0.64541725    -0.79300
O512        O  0.36961659  0.96254124  0.67389755    -0.79500
C513        C  0.38009653  0.93174506  0.68946789     1.01100
O514        O  0.41332359  0.96091278  0.64387171    -0.86800
O515        O  0.39452258  0.91356941  0.58901924    -0.83900
C516        C  0.37338111  0.89423724  0.56621785     0.96600
O517        O  0.34970998  0.87358893  0.57068148    -0.83900
O518        O  0.29967657  0.92726703  0.55867258    -0.86500
C519        C  0.29065166  0.96135836  0.56058047     1.01100
O520        O  0.29964315  0.97880709  0.58694293    -0.79400
O521        O  0.37039149  0.99568175  0.61385163    -0.79500
C522        C  0.40274367  0.99170290  0.62910698     1.01100
Cr523      Cr  0.39277223  0.90859413  0.63309770     1.93700
Cr524      Cr  0.31677434  0.88953196  0.59277026     1.93200
Cr525      Cr  0.33608990  0.96711317  0.62906040     1.39100
O526        O  0.34789372  0.92179905  0.61814516    -1.24600
O527        O  0.36053612  0.90304146  0.82796214    -0.86800
O528        O  0.36283301  0.85148335  0.87657538    -0.83900
C529        C  0.38772840  0.83024469  0.87615534     0.96600
O530        O  0.41782161  0.84480596  0.88103138    -0.83900
O531        O  0.47238550  0.90169272  0.89671883    -0.86600
C532        C  0.47471410  0.92505673  0.87586856     1.01100
O533        O  0.44893190  0.94566623  0.86043278    -0.79300
O534        O  0.37996970  0.96243569  0.83147348    -0.79500
C535        C  0.37027189  0.93174507  0.81553896     1.01100
O536        O  0.33557295  0.95984221  0.86074507    -0.86800
O537        O  0.35400435  0.91184940  0.91503262    -0.83900
C538        C  0.37526572  0.89290166  0.93800517     0.96600
O539        O  0.39921663  0.87242322  0.93379662    -0.83900
O540        O  0.44964722  0.92599499  0.94636191    -0.86500
C541        C  0.45811980  0.96037358  0.94484922     1.01100
O542        O  0.44879494  0.97826526  0.91873914    -0.79400
O543        O  0.37811990  0.99437138  0.89158993    -0.79500
C544        C  0.34583150  0.99031404  0.87615048     1.01100
Cr545      Cr  0.35636571  0.90752127  0.87111607     1.93700
Cr546      Cr  0.43232544  0.88853751  0.91192383     1.93200
Cr547      Cr  0.41297717  0.96668585  0.87643993     1.39100
O548        O  0.40124802  0.92094440  0.88665899    -1.24600
O549        O  0.11945936  0.03660571  0.67385317    -0.86800
O550        O  0.04985747  0.05122043  0.64408890    -0.83900
C551        C  0.02397279  0.07162113  0.62843636     0.96600
O552        O  0.02637614  0.09522128  0.60777844    -0.83900
O553        O  0.08008918  0.15343170  0.62261798    -0.86600
C554        C  0.10987496  0.16828764  0.62648995     1.01100
O555        O  0.13501800  0.14692850  0.62696266    -0.79300
O556        O  0.13846902  0.09625732  0.67658642    -0.79500
C557        C  0.12952629  0.06745398  0.68950112     1.01100
O558        O  0.12234927  0.00403904  0.61424951    -0.86800
O559        O  0.05171134  0.01828415  0.58647573    -0.83900
C560        C  0.04213015  0.03594861  0.56027145     0.96600
O561        O  0.04966587  0.07060672  0.55859364    -0.83900
O562        O  0.09903878  0.12507953  0.57051429    -0.86500
C563        C  0.12308158  0.10476768  0.56637174     1.01100
O564        O  0.14465001  0.08624787  0.58946542    -0.79400
O565        O  0.16429958  0.03947216  0.64468377    -0.79500
C566        C  0.15450304  0.00857081  0.62983090     1.01100
Cr567      Cr  0.08680495  0.03113665  0.62880052     1.93700
Cr568      Cr  0.06624138  0.10876797  0.59251689     1.93200
Cr569      Cr  0.14245700  0.09123101  0.63341987     1.39100
O570        O  0.09776885  0.07706511  0.61820784    -1.24600
O571        O  0.12989180  0.03484646  0.83142892    -0.86800
O572        O  0.19874554  0.05112486  0.86129015    -0.83900
C573        C  0.22472244  0.07099443  0.87742017     0.96600
O574        O  0.22217596  0.09432827  0.89823608    -0.83900
O575        O  0.16755795  0.15167140  0.88130706    -0.86600
C576        C  0.13748980  0.16637656  0.87643705     1.01100
O577        O  0.11251643  0.14526048  0.87681111    -0.79300
O578        O  0.11006988  0.09412571  0.82818195    -0.79500
C579        C  0.11990859  0.06560509  0.81563104     1.01100
O580        O  0.12715720  0.00255714  0.89120254    -0.86800
O581        O  0.19752135  0.01858269  0.91934316    -0.83900
C582        C  0.20623576  0.03635738  0.94553659     0.96600
O583        O  0.19778479  0.07076617  0.94698256    -0.83900
O584        O  0.14781779  0.12485276  0.93357694    -0.86500
C585        C  0.12404421  0.10421633  0.93787191     1.01100
O586        O  0.10297987  0.08500892  0.91494340    -0.79400
O587        O  0.08476191  0.03718847  0.86033921    -0.79500
C588        C  0.09499698  0.00649131  0.87537211     1.01100
Cr589      Cr  0.16233929  0.03023778  0.87667724     1.93700
Cr590      Cr  0.18146166  0.10815965  0.91244949     1.93200
Cr591      Cr  0.10566430  0.08941560  0.87113986     1.39100
O592        O  0.15050201  0.07590050  0.88687637    -1.24600
C593        C  0.12497661  0.10291045  0.73719190    -0.14800
C594        C  0.12973525  0.06854223  0.72267527     0.07300
C595        C  0.13026502  0.03378152  0.73864073    -0.14800
C596        C  0.12604054  0.03313703  0.76823197    -0.14800
C597        C  0.12091936  0.06722983  0.78280686     0.07300
C598        C  0.12047620  0.10224863  0.76702040    -0.14800
H599        H  0.12382962  0.13005944  0.72515718     0.11300
H600        H  0.13364685  0.00676975  0.72806127     0.11300
H601        H  0.12686956  0.00567621  0.77975521     0.11300
H602        H  0.11713520  0.12905004  0.77788839     0.11300
C603        C  0.15523516  0.10359225  0.49650066    -0.14800
C604        C  0.12298449  0.10242539  0.97043495     0.07300
C605        C  0.09124172  0.10230081  0.97633058    -0.14800
C606        C  0.09190072  0.10280892  0.50792183    -0.14800
C607        C  0.12398296  0.10281314  0.53379672     0.07300
C608        C  0.15568755  0.10249335  0.52785943    -0.14800
H609        H  0.17977069  0.10290129  0.99232253     0.11300
H610        H  0.06631221  0.10293909  0.95680352     0.11300
H611        H  0.06709043  0.10350093  0.51198644     0.11300
H612        H  0.18063364  0.10286790  0.54733922     0.11300
C613        C  0.48800208  0.01866309  0.97396678    -0.14800
C614        C  0.47969840  0.97969895  0.97428049     0.07300
C615        C  0.99228296  0.95922321  0.00305795    -0.14800
C616        C  0.01295206  0.97717026  0.53124504    -0.14800
C617        C  0.02113025  0.01618431  0.53086993     0.07300
C618        C  0.50867251  0.03669215  0.50205588    -0.14800
H619        H  0.47867436  0.03519412  0.95217880     0.11300
H620        H  0.98663655  0.92901969  0.00399219     0.11300
H621        H  0.02233275  0.96072050  0.55306499     0.11300
H622        H  0.51434080  0.06686955  0.50102307     0.11300
C623        C  0.32013259  0.04180862  0.90143081    -0.14800
C624        C  0.31924498  0.02024068  0.87462565     0.07300
C625        C  0.28957721  0.02314441  0.84678931    -0.14800
C626        C  0.26004262  0.04398887  0.84656619    -0.14800
C627        C  0.25929222  0.06230474  0.87427298     0.07300
C628        C  0.29025981  0.06269185  0.90127155    -0.14800
H629        H  0.34261751  0.03992917  0.92321347     0.11300
H630        H  0.28835674  0.00720372  0.82564815     0.11300
H631        H  0.23668959  0.04311586  0.82543367     0.11300
H632        H  0.29028434  0.07601002  0.92314900     0.11300
C633        C  0.04046598  0.93150005  0.89868115    -0.14800
C634        C  0.00913646  0.93307359  0.87209882     0.07300
C635        C  0.00950860  0.95249274  0.84474465    -0.14800
C636        C  0.03882896  0.97390879  0.84529610    -0.14800
C637        C  0.06864314  0.97610064  0.87306074     0.07300
C638        C  0.07012813  0.95290819  0.89915051    -0.14800
H639        H  0.04088549  0.91705403  0.92022427     0.11300
H640        H  0.48585686  0.95411654  0.82385789     0.11300
H641        H  0.03726946  0.99089801  0.82459697     0.11300
H642        H  0.09286980  0.95397003  0.92077469     0.11300
C643        C  0.25797507  0.01873138  0.53211010    -0.14800
C644        C  0.26874858  0.98068052  0.53128873     0.07300
C645        C  0.25820142  0.96089593  0.50211333    -0.14800
C646        C  0.23768763  0.97872824  0.97445635    -0.14800
C647        C  0.22728910  0.01694743  0.97511073     0.07300
C648        C  0.23782237  0.03681665  0.00425560    -0.14800
H649        H  0.26560480  0.03462416  0.55424420     0.11300
H650        H  0.26582887  0.93138776  0.50074424     0.11300
H651        H  0.23006670  0.96272863  0.95237467     0.11300
H652        H  0.23068483  0.06648281  0.00549308     0.11300
C653        C  0.34257601  0.89337348  0.50765655    -0.14800
C654        C  0.37445837  0.89550892  0.53365053     0.07300
C655        C  0.40623112  0.89769589  0.52786966    -0.14800
C656        C  0.40606577  0.89648545  0.49658965    -0.14800
C657        C  0.37407090  0.89474352  0.97053027     0.07300
C658        C  0.34225662  0.89353035  0.97629289    -0.14800
H659        H  0.31764879  0.89138542  0.51159724     0.11300
H660        H  0.43104697  0.89908993  0.54743014     0.11300
H661        H  0.43103843  0.89690753  0.49265344     0.11300
H662        H  0.31745990  0.89177755  0.95671520     0.11300
C663        C  0.37530575  0.89560415  0.73669136    -0.14800
C664        C  0.38043657  0.93017546  0.72266168     0.07300
C665        C  0.38144662  0.96464122  0.73914161    -0.14800
C666        C  0.37721909  0.96482226  0.76874033    -0.14800
C667        C  0.37154868  0.93054521  0.78277767     0.07300
C668        C  0.37077762  0.89579783  0.76651715    -0.14800
H669        H  0.37382162  0.86867827  0.72425024     0.11300
H670        H  0.38517065  0.99176623  0.72894248     0.11300
H671        H  0.37841121  0.99208764  0.78065778     0.11300
H672        H  0.36707712  0.86886762  0.77696986     0.11300
C673        C  0.45881371  0.02444163  0.65905916    -0.14800
C674        C  0.42913048  0.02199203  0.63117296     0.07300
C675        C  0.42831510  0.04399860  0.60465651    -0.14800
C676        C  0.45836205  0.06462330  0.60501426    -0.14800
C677        C  0.48945735  0.06343182  0.63188243     0.07300
C678        C  0.48859347  0.04491687  0.65943773    -0.14800
H679        H  0.45992081  0.00820988  0.68001416     0.11300
H680        H  0.40580352  0.04252978  0.58287003     0.11300
H681        H  0.45837029  0.07824447  0.58327325     0.11300
H682        H  0.01191611  0.04369361  0.68045957     0.11300
C683        C  0.24061744  0.95535034  0.66016228    -0.14800
C684        C  0.24046414  0.93464087  0.63317314     0.07300
C685        C  0.20886041  0.93259702  0.60691180    -0.14800
C686        C  0.17935678  0.95438850  0.60642306    -0.14800
C687        C  0.18127881  0.97858450  0.63210648     0.07300
C688        C  0.21154387  0.97728816  0.65951464    -0.14800
H689        H  0.26438820  0.95739030  0.68082296     0.11300
H690        H  0.20800154  0.91720751  0.58562693     0.11300
H691        H  0.15626443  0.95473959  0.58506887     0.11300
H692        H  0.21352595  0.99507823  0.67991098     0.11300
C693        C  0.15179050  0.27376356  0.88395685    -0.14800
C694        C  0.11722284  0.28742240  0.87838933     0.07300
C695        C  0.08953769  0.26104597  0.87048017    -0.14800
C696        C  0.09624015  0.22198258  0.86833935    -0.14800
C697        C  0.13085093  0.20827878  0.87422356     0.07300
C698        C  0.15850370  0.23468735  0.88186974    -0.14800
H699        H  0.17380995  0.29337493  0.88978307     0.11300
H700        H  0.06264063  0.27062682  0.86544499     0.11300
H701        H  0.07421149  0.20238103  0.86250882     0.11300
H702        H  0.18540747  0.22510460  0.88695687     0.11300
C703        C  0.09592486  0.27625164  0.62204944    -0.14800
C704        C  0.12937647  0.28975148  0.62317722     0.07300
C705        C  0.15586339  0.26300444  0.62552475    -0.14800
C706        C  0.14935698  0.22385616  0.62731283    -0.14800
C707        C  0.11613658  0.21031694  0.62677712     0.07300
C708        C  0.08939833  0.23702049  0.62382823    -0.14800
H709        H  0.07480650  0.29608857  0.62037595     0.11300
H710        H  0.18183380  0.27233255  0.62659800     0.11300
H711        H  0.17056606  0.20412061  0.62902248     0.11300
H712        H  0.06347339  0.22764282  0.62283050     0.11300
C713        C  0.12771519  0.46579070  0.51844095    -0.14800
C714        C  0.12127954  0.43192840  0.53258784     0.07300
C715        C  0.11953937  0.39697609  0.51638420    -0.14800
C716        C  0.12370015  0.39556948  0.98657485    -0.14800
C717        C  0.12969705  0.42961932  0.97240787     0.07300
C718        C  0.13170306  0.46439959  0.98875273    -0.14800
H719        H  0.12963797  0.49313775  0.53030084     0.11300
H720        H  0.11518091  0.37033059  0.52692182     0.11300
H721        H  0.12141806  0.36849348  0.97423054     0.11300
H722        H  0.13610172  0.49116479  0.97840081     0.11300
C723        C  0.15660567  0.39465035  0.74684725    -0.14800
C724        C  0.12483993  0.39510765  0.72062655     0.07300
C725        C  0.09286692  0.39593373  0.72617324    -0.14800
C726        C  0.09267416  0.39499497  0.75738058    -0.14800
C727        C  0.12443151  0.39461226  0.78360983     0.07300
C728        C  0.15643839  0.39513066  0.77809234    -0.14800
H729        H  0.18168521  0.39407945  0.74314416     0.11300
H730        H  0.06811633  0.39621589  0.70643589     0.11300
H731        H  0.06757491  0.39474377  0.76103981     0.11300
H732        H  0.18116010  0.39478437  0.79781890     0.11300
C733        C  0.40869359  0.73671626  0.62841929    -0.14800
C734        C  0.38202417  0.71000948  0.62548471     0.07300
C735        C  0.34842645  0.72351321  0.62393552    -0.14800
C736        C  0.34176437  0.76266342  0.62549676    -0.14800
C737        C  0.36846448  0.78935772  0.62858168     0.07300
C738        C  0.40200557  0.77589876  0.62992239    -0.14800
H739        H  0.43480639  0.72735150  0.62993138     0.11300
H740        H  0.32717644  0.70374655  0.62193066     0.11300
H741        H  0.31564708  0.77200986  0.62399033     0.11300
H742        H  0.42321609  0.79571246  0.63189352     0.11300
C743        C  0.48224450  0.47772371  0.72523069    -0.14800
C744        C  0.47790865  0.51762377  0.72508159     0.07300
C745        C  0.49417875  0.53862776  0.75308403    -0.14800
C746        C  0.01476659  0.52016078  0.78080076    -0.14800
C747        C  0.01930976  0.48029305  0.78091632     0.07300
C748        C  0.00268825  0.45921545  0.75299798    -0.14800
H749        H  0.46976152  0.46085202  0.70399635     0.11300
H750        H  0.49138580  0.56947458  0.75356800     0.11300
H751        H  0.02728136  0.53706670  0.80198814     0.11300
H752        H  0.00544927  0.42838403  0.75250548     0.11300
C753        C  0.32043164  0.45550565  0.64967592    -0.14800
C754        C  0.31925876  0.47834227  0.62346070     0.07300
C755        C  0.28958120  0.47596749  0.59559470    -0.14800
C756        C  0.26029990  0.45432504  0.59483951    -0.14800
C757        C  0.25974327  0.43476567  0.62207717     0.07300
C758        C  0.29078448  0.43386334  0.64900110    -0.14800
H759        H  0.34297811  0.45684463  0.67145077     0.11300
H760        H  0.28816564  0.49280002  0.57484721     0.11300
H761        H  0.23690248  0.45561895  0.57376988     0.11300
H762        H  0.29098705  0.41956698  0.67054215     0.11300
C763        C  0.04166908  0.56363091  0.65249686    -0.14800
C764        C  0.01099668  0.56412334  0.62521208     0.07300
C765        C  0.01207872  0.54686981  0.59722500    -0.14800
C766        C  0.04164712  0.52617564  0.59733313    -0.14800
C767        C  0.07094573  0.52230195  0.62536562     0.07300
C768        C  0.07154451  0.54284003  0.65256653    -0.14800
H769        H  0.04138841  0.57608666  0.67458704     0.11300
H770        H  0.48879942  0.54665635  0.57583917     0.11300
H771        H  0.04067648  0.51097671  0.57592452     0.11300
H772        H  0.09371733  0.54012427  0.67450442     0.11300
C773        C  0.40117218  0.72312730  0.88808387    -0.14800
C774        C  0.36615546  0.70942500  0.87778725     0.07300
C775        C  0.33865565  0.73563670  0.86519187    -0.14800
C776        C  0.34600489  0.77461785  0.86316719    -0.14800
C777        C  0.38103892  0.78832466  0.87370317     0.07300
C778        C  0.40851355  0.76206052  0.88604936    -0.14800
H779        H  0.42305836  0.70359754  0.89763279     0.11300
H780        H  0.31153316  0.72592777  0.85629803     0.11300
H781        H  0.32414842  0.79419656  0.85367163     0.11300
H782        H  0.43565076  0.77173220  0.89497581     0.11300
C783        C  0.26464412  0.47572096  0.78054004    -0.14800
C784        C  0.27048400  0.51535085  0.78089195     0.07300
C785        C  0.25628471  0.53649368  0.75260768    -0.14800
C786        C  0.23663780  0.51840531  0.72446270    -0.14800
C787        C  0.23061317  0.47885705  0.72410620     0.07300
C788        C  0.24486139  0.45759650  0.75232932    -0.14800
H789        H  0.27536933  0.45876663  0.80196426     0.11300
H790        H  0.26006805  0.56720556  0.75218312     0.11300
H791        H  0.22589196  0.53547235  0.70309219     0.11300
H792        H  0.24080130  0.42691616  0.75264422     0.11300
C793        C  0.34145963  0.60064512  0.75676348    -0.14800
C794        C  0.37322690  0.60182619  0.78291677     0.07300
C795        C  0.40521610  0.60295118  0.77749034    -0.14800
C796        C  0.40535503  0.60438669  0.74633449    -0.14800
C797        C  0.37357338  0.60325567  0.72014346     0.07300
C798        C  0.34163565  0.60062533  0.72558067    -0.14800
H799        H  0.31643899  0.59982536  0.76048201     0.11300
H800        H  0.42992327  0.60402690  0.79725019     0.11300
H801        H  0.43039687  0.60631974  0.74271435     0.11300
H802        H  0.31692686  0.59975812  0.70583890     0.11300
C803        C  0.38540861  0.53447875  0.98986429    -0.14800
C804        C  0.38246338  0.56880078  0.97281748     0.07300
C805        C  0.37663226  0.60317672  0.98673588    -0.14800
C806        C  0.37187614  0.60266683  0.51657086    -0.14800
C807        C  0.37419075  0.56806899  0.53333506     0.07300
C808        C  0.38158140  0.53409977  0.51983149    -0.14800
H809        H  0.38994568  0.50754052  0.97981656     0.11300
H810        H  0.37388861  0.62999035  0.97393651     0.11300
H811        H  0.36694339  0.62941988  0.52661693     0.11300
H812        H  0.38419900  0.50699484  0.53220634     0.11300
C813        C  0.42904948  0.45415347  0.85570688    -0.14800
C814        C  0.43065077  0.47768355  0.88166146     0.07300
C815        C  0.46064458  0.47599299  0.90928386    -0.14800
C816        C  0.48989937  0.45441026  0.90987948    -0.14800
C817        C  0.49002329  0.43430819  0.88271050     0.07300
C818        C  0.45865340  0.43262242  0.85620004    -0.14800
H819        H  0.40619145  0.45495426  0.83416055     0.11300
H820        H  0.46232375  0.49335686  0.92984120     0.11300
H821        H  0.01355831  0.45630155  0.93068687     0.11300
H822        H  0.45812774  0.41786352  0.83472953     0.11300
C823        C  0.24072542  0.54100526  0.91033089    -0.14800
C824        C  0.24033760  0.56215053  0.88350978     0.07300
C825        C  0.20850498  0.56498364  0.85758882    -0.14800
C826        C  0.17894442  0.54343337  0.85713344    -0.14800
C827        C  0.18108028  0.51871581  0.88249650     0.07300
C828        C  0.21155774  0.51935299  0.90973405    -0.14800
H829        H  0.26470421  0.53838043  0.93072466     0.11300
H830        H  0.20747926  0.58074026  0.83643910     0.11300
H831        H  0.15564078  0.54360402  0.83596686     0.11300
H832        H  0.21366408  0.50117076  0.92991965     0.11300
O833        O  0.86979577  0.53613409  0.42384460    -0.86800
O834        O  0.80040584  0.55033996  0.39424483    -0.83900
C835        C  0.77443299  0.57081791  0.37906419     0.96600
O836        O  0.77638539  0.59455847  0.35831545    -0.83900
O837        O  0.83007713  0.65252049  0.37232632    -0.86600
C838        C  0.85986918  0.66738771  0.37634553     1.01100
O839        O  0.88487124  0.64624710  0.37602313    -0.79300
O840        O  0.88907066  0.59570972  0.42588362    -0.79500
C841        C  0.88063727  0.56703474  0.43928117     1.01100
O842        O  0.87218356  0.50315987  0.36392666    -0.86800
O843        O  0.80169879  0.51723254  0.33634288    -0.83900
C844        C  0.79174123  0.53505526  0.31018365     0.96600
O845        O  0.79874034  0.56985571  0.30857779    -0.83900
O846        O  0.84817194  0.62379492  0.31965305    -0.86500
C847        C  0.87221966  0.60347267  0.31544935     1.01100
O848        O  0.89388172  0.58503268  0.33850791    -0.79400
O849        O  0.91417501  0.53876312  0.39400156    -0.79500
C850        C  0.90430991  0.50773406  0.37942370     1.01100
Cr851      Cr  0.83693781  0.53031004  0.37868163     1.93700
Cr852      Cr  0.81584019  0.60789224  0.34235840     1.93200
Cr853      Cr  0.89229616  0.59043447  0.38255716     1.39100
O854        O  0.84761340  0.57622885  0.36784805    -1.24600
O855        O  0.88160443  0.53599085  0.08161248    -0.86800
O856        O  0.95062848  0.55171447  0.11206253    -0.83900
C857        C  0.97635068  0.57206811  0.12808658     0.96600
O858        O  0.97353610  0.59559844  0.14866616    -0.83900
O859        O  0.91915759  0.65327257  0.13227169    -0.86600
C860        C  0.88902636  0.66784489  0.12738666     1.01100
O861        O  0.86397749  0.64643334  0.12697010    -0.79300
O862        O  0.86245456  0.59550843  0.07810296    -0.79500
C863        C  0.87249129  0.56683734  0.06581466     1.01100
O864        O  0.87785777  0.50403171  0.14116011    -0.86800
O865        O  0.94820264  0.51904221  0.16943319    -0.83900
C866        C  0.95710784  0.53672404  0.19560331     0.96600
O867        O  0.94914759  0.57129306  0.19718193    -0.83900
O868        O  0.89903075  0.62535837  0.18392436    -0.86500
C869        C  0.87496700  0.60472439  0.18768079     1.01100
O870        O  0.85387786  0.58604833  0.16438636    -0.85800
O871        O  0.83600905  0.53866347  0.10965871    -0.79500
C872        C  0.84575209  0.50822990  0.12521143     1.01100
Cr873      Cr  0.91357618  0.53120441  0.12688878     1.93700
Cr874      Cr  0.93284408  0.60910952  0.16290552     1.93200
Cr875      Cr  0.85717975  0.59071043  0.12082578     1.39100
O876        O  0.90193904  0.57702888  0.13699608    -1.24600
O877        O  0.61017746  0.40472968  0.07786474    -0.86800
O878        O  0.61246789  0.35310852  0.12633180    -0.83900
C879        C  0.63689915  0.33148768  0.12539220     0.96600
O880        O  0.66704472  0.34569662  0.12973660    -0.83900
O881        O  0.72268719  0.40213984  0.14612266    -0.86600
C882        C  0.72505292  0.42568881  0.12538298     1.01100
O883        O  0.69899219  0.44564680  0.10957682    -0.79300
O884        O  0.63034297  0.46381822  0.08130438    -0.79500
C885        C  0.62009339  0.43322870  0.06536704     1.01100
O886        O  0.58650701  0.46177215  0.11120169    -0.86800
O887        O  0.60469663  0.41330421  0.16526008    -0.83900
C888        C  0.62566112  0.39364369  0.18791438     0.96600
O889        O  0.64931561  0.37298060  0.18330344    -0.83900
O890        O  0.70009579  0.42584160  0.19584042    -0.86500
C891        C  0.70916507  0.46000202  0.19440549     1.01100
O892        O  0.70017396  0.47803945  0.16835908    -0.79400
O893        O  0.62972050  0.49569287  0.14183656    -0.79500
C894        C  0.59732934  0.49211545  0.12660452     1.01100
Cr895      Cr  0.60656327  0.40916417  0.12115981     1.93700
Cr896      Cr  0.68237594  0.38891781  0.16117926     1.93200
Cr897      Cr  0.66381657  0.46737524  0.12615558     1.39100
O898        O  0.65158685  0.42188109  0.13635551    -1.24600
O899        O  0.63854892  0.40202772  0.42640571    -0.86800
O900        O  0.63586925  0.35107330  0.37689685    -0.83900
C901        C  0.61124109  0.32967644  0.37745282     0.96600
O902        O  0.58144837  0.34426179  0.37380541    -0.83900
O903        O  0.52693542  0.40105096  0.35941356    -0.86600
C904        C  0.52458578  0.42566498  0.37942423     1.01100
O905        O  0.55013697  0.44702513  0.39397783    -0.79300
O906        O  0.61935295  0.46169121  0.42346622    -0.79500
C907        C  0.62962296  0.43097811  0.43924176     1.01100
O908        O  0.66394298  0.45851197  0.39445430    -0.86800
O909        O  0.64428145  0.41146441  0.33910295    -0.83900
C910        C  0.62272599  0.39276617  0.31605355     0.96600
O911        O  0.59855091  0.37255317  0.32020489    -0.83900
O912        O  0.54759872  0.42532085  0.30875754    -0.86500
C913        C  0.54068415  0.46022655  0.31017397     1.01100
O914        O  0.55162966  0.47866072  0.33599708    -0.79400
O915        O  0.62207648  0.49346845  0.36351176    -0.79500
C916        C  0.65412815  0.48928316  0.37952483     1.01100
Cr917      Cr  0.64245067  0.40675555  0.38318280     1.93700
Cr918      Cr  0.56619068  0.38810901  0.34314481     1.93200
Cr919      Cr  0.58673425  0.46660286  0.37833419     1.39100
O920        O  0.59767627  0.42053085  0.36805435    -1.24600
O921        O  0.88948066  0.90306686  0.17658629    -0.86800
O922        O  0.88615406  0.85257839  0.12714797    -0.83900
C923        C  0.86144356  0.83099043  0.12742051     0.96600
O924        O  0.83139104  0.84534703  0.12335211    -0.83900
O925        O  0.77645004  0.90266712  0.10790509    -0.86600
C926        C  0.77457414  0.92524175  0.12947390     1.01100
O927        O  0.80100579  0.94433765  0.14577720    -0.79300
O928        O  0.86964471  0.96226915  0.17423314    -0.79500
C929        C  0.88038851  0.93151387  0.18977545     1.01100
O930        O  0.91328519  0.96076438  0.14387741    -0.86800
O931        O  0.89438961  0.91339768  0.08902502    -0.83900
C932        C  0.87326797  0.89404870  0.06622179     0.96600
O933        O  0.84966117  0.87336555  0.07074346    -0.83900
O934        O  0.79995619  0.92733529  0.05888131    -0.86500
C935        C  0.79070209  0.96131063  0.06088192     1.01100
O936        O  0.79943723  0.97857786  0.08732415    -0.79400
O937        O  0.87021045  0.99573949  0.11428782    -0.79500
C938        C  0.90261176  0.99169787  0.12936063     1.01100
Cr939      Cr  0.89274621  0.90841152  0.13317799     1.93700
Cr940      Cr  0.81674844  0.88942285  0.09282706     1.93200
Cr941      Cr  0.83600388  0.96682669  0.12942209     1.39100
O942        O  0.84787570  0.92160569  0.11833547    -1.24600
O943        O  0.86051204  0.90312292  0.32811734    -0.86800
O944        O  0.86260991  0.85147148  0.37670847    -0.83900
C945        C  0.88744583  0.83026515  0.37612965     0.96600
O946        O  0.91746422  0.84488507  0.38079820    -0.83900
O947        O  0.97209147  0.90157528  0.39631998    -0.86600
C948        C  0.97456237  0.92556418  0.37594746     1.01100
O949        O  0.94899260  0.94674010  0.36100915    -0.79300
O950        O  0.87987163  0.96258216  0.33174973    -0.79500
C951        C  0.87040765  0.93183745  0.31581323     1.01100
O952        O  0.83518206  0.95974654  0.36072196    -0.86800
O953        O  0.85391784  0.91175614  0.41513151    -0.83900
C954        C  0.87529739  0.89286761  0.43808467     0.96600
O955        O  0.89929688  0.87245571  0.43386834    -0.83900
O956        O  0.95011612  0.92564631  0.44644669    -0.86500
C957        C  0.95800427  0.96026950  0.44514514     1.01100
O958        O  0.94805565  0.97854823  0.41922569    -0.79400
O959        O  0.87749185  0.99413741  0.39193591    -0.79500
C960        C  0.84527672  0.99012479  0.37629371     1.01100
Cr961      Cr  0.85620838  0.90750906  0.37121371     1.93700
Cr962      Cr  0.93225945  0.88847244  0.41181139     1.93200
Cr963      Cr  0.91261323  0.96696965  0.37682742     1.39100
O964        O  0.90109574  0.92101612  0.38679458    -1.24600
O965        O  0.61902896  0.03645792  0.17383632    -0.86800
O966        O  0.54949503  0.05086800  0.14392223    -0.83900
C967        C  0.52378646  0.07170053  0.12862570     0.96600
O968        O  0.52630542  0.09561246  0.10821063    -0.83900
O969        O  0.58042501  0.15336501  0.12280027    -0.86600
C970        C  0.61019353  0.16810958  0.12644214     1.01100
O971        O  0.63520244  0.14661669  0.12680478    -0.79300
O972        O  0.63820039  0.09606299  0.17655761    -0.79500
C973        C  0.62904199  0.06735518  0.18945027     1.01100
O974        O  0.62212757  0.00377847  0.11423776    -0.86800
O975        O  0.55157496  0.01815072  0.08629759    -0.83900
C976        C  0.54169566  0.03605280  0.06019660     0.96600
O977        O  0.54895008  0.07081873  0.05866403    -0.83900
O978        O  0.59884039  0.12462916  0.07042006    -0.86500
C979        C  0.62283037  0.10419025  0.06627449     1.01100
O980        O  0.64439955  0.08567648  0.08940210    -0.79400
O981        O  0.66401924  0.03906769  0.14485026    -0.79500
C982        C  0.65426117  0.00821817  0.12991948     1.01100
Cr983      Cr  0.58652375  0.03092045  0.12870931     1.93700
Cr984      Cr  0.56609539  0.10877586  0.09266947     1.93200
Cr985      Cr  0.64228739  0.09086259  0.13340129     1.39100
O986        O  0.59754734  0.07686255  0.11819936    -1.24600
O987        O  0.62943769  0.03531076  0.33146273    -0.86800
O988        O  0.69828377  0.05195755  0.36108448    -0.83900
C989        C  0.72443577  0.07140883  0.37747521     0.96600
O990        O  0.72206416  0.09439910  0.39856871    -0.83900
O991        O  0.66766842  0.15195914  0.38153440    -0.86600
C992        C  0.63762273  0.16671532  0.37668320     1.01100
O993        O  0.61259239  0.14565755  0.37700811    -0.79300
O994        O  0.60968462  0.09458733  0.32829031    -0.79500
C995        C  0.61936263  0.06603794  0.31565402     1.01100
O996        O  0.62707232  0.00287844  0.39125901    -0.86800
O997        O  0.69751303  0.01904395  0.41920429    -0.83900
C998        C  0.70597736  0.03657655  0.44549926     0.96600
O999        O  0.69730894  0.07088182  0.44709088    -0.83900
O1000       O  0.64775431  0.12541248  0.43368779    -0.86500
C1001       C  0.62405227  0.10478819  0.43807723     1.01100
O1002       O  0.60296201  0.08553329  0.41521019    -0.79400
O1003       O  0.58457213  0.03769102  0.36069939    -0.79500
C1004       C  0.59486491  0.00691461  0.37559840     1.01100
Cr1005     Cr  0.66210890  0.03073405  0.37662816     1.93700
Cr1006     Cr  0.68134323  0.10843405  0.41265260     1.93200
Cr1007     Cr  0.60550700  0.08989208  0.37135835     1.39100
O1008       O  0.65030714  0.07631310  0.38699225    -1.24600
C1009       C  0.62424726  0.10303077  0.23701953    -0.14800
C1010       C  0.62896958  0.06858696  0.22256552     0.07300
C1011       C  0.62927830  0.03388895  0.23855561    -0.14800
C1012       C  0.62503326  0.03338488  0.26814538    -0.14800
C1013       C  0.62011384  0.06755975  0.28272425     0.07300
C1014       C  0.61972979  0.10251262  0.26685826    -0.14800
H1015       H  0.62321713  0.13013971  0.22495753     0.11300
H1016       H  0.63257810  0.00681256  0.22802698     0.11300
H1017       H  0.62576337  0.00596184  0.27969907     0.11300
H1018       H  0.61649550  0.12937108  0.27769785     0.11300
C1019       C  0.65505011  0.10246758  0.99637828    -0.14800
C1020       C  0.62311358  0.10306931  0.47065201     0.07300
C1021       C  0.59140336  0.10243529  0.47658004    -0.14800
C1022       C  0.59168231  0.10263493  0.00773586    -0.14800
C1023       C  0.62373512  0.10218537  0.03365932     0.07300
C1024       C  0.65544605  0.10136932  0.02773060    -0.14800
H1025       H  0.67992539  0.10443326  0.49246226     0.11300
H1026       H  0.56644505  0.10264118  0.45707494     0.11300
H1027       H  0.56686213  0.10368497  0.01177230     0.11300
H1028       H  0.68038469  0.10137767  0.04722274     0.11300
C1029       C  0.98804932  0.01845259  0.47421109    -0.14800
C1030       C  0.97967235  0.97951506  0.47458194     0.07300
C1031       C  0.49241280  0.95910905  0.50332275    -0.14800
C1032       C  0.51266056  0.97734807  0.03100683    -0.14800
C1033       C  0.52076375  0.01638156  0.03071548     0.07300
C1034       C  0.00837228  0.03686755  0.00191863    -0.14800
H1035       H  0.97866001  0.03498356  0.45243134     0.11300
H1036       H  0.48668278  0.92891516  0.50429491     0.11300
H1037       H  0.52195789  0.96086027  0.05281763     0.11300
H1038       H  0.01400401  0.06704921  0.00094559     0.11300
C1039       C  0.81960697  0.04150601  0.40164799    -0.14800
C1040       C  0.81869152  0.02002920  0.37479233     0.07300
C1041       C  0.78914576  0.02323171  0.34688853    -0.14800
C1042       C  0.75972615  0.04432261  0.34663122    -0.14800
C1043       C  0.75897541  0.06251895  0.37438401     0.07300
C1044       C  0.78985276  0.06259826  0.40146372    -0.14800
H1045       H  0.84201950  0.03942376  0.42347148     0.11300
H1046       H  0.78793752  0.00739425  0.32570229     0.11300
H1047       H  0.73644139  0.04372913  0.32543178     0.11300
H1048       H  0.78987495  0.07584332  0.42336735     0.11300
C1049       C  0.54023110  0.93177344  0.39865935    -0.14800
C1050       C  0.50887944  0.93356434  0.37210847     0.07300
C1051       C  0.50924814  0.95320568  0.34485704    -0.14800
C1052       C  0.53861726  0.97456809  0.34547927    -0.14800
C1053       C  0.56847885  0.97653195  0.37322254     0.07300
C1054       C  0.56994040  0.95316491  0.39921174    -0.14800
H1055       H  0.54063226  0.91717697  0.42013479     0.11300
H1056       H  0.98567064  0.95491179  0.32403413     0.11300
H1057       H  0.53706048  0.99170978  0.32485694     0.11300
H1058       H  0.59270115  0.95406416  0.42082482     0.11300
C1059       C  0.75814461  0.01872902  0.03230720    -0.14800
C1060       C  0.76881809  0.98062598  0.03158158     0.07300
C1061       C  0.75821660  0.96072819  0.00245568    -0.14800
C1062       C  0.73737201  0.97881421  0.47427462    -0.14800
C1063       C  0.72702218  0.01704611  0.47500669     0.07300
C1064       C  0.73760482  0.03685037  0.50417556    -0.14800
H1065       H  0.76584562  0.03471029  0.05439738     0.11300
H1066       H  0.76578024  0.93118391  0.00115373     0.11300
H1067       H  0.72967328  0.96286386  0.45216951     0.11300
H1068       H  0.73043718  0.06649084  0.50547666     0.11300
C1069       C  0.84245432  0.89297579  0.00758655    -0.14800
C1070       C  0.87431110  0.89534932  0.03360790     0.07300
C1071       C  0.90606120  0.89788407  0.02781367    -0.14800
C1072       C  0.90592876  0.89675687  0.99653465    -0.14800
C1073       C  0.87414376  0.89468393  0.47060087     0.07300
C1074       C  0.84232780  0.89356867  0.47635172    -0.14800
H1075       H  0.81752988  0.89074921  0.01151497     0.11300
H1076       H  0.93086880  0.89948585  0.04737878     0.11300
H1077       H  0.93089837  0.89742071  0.99262215     0.11300
H1078       H  0.81752624  0.89183467  0.45677342     0.11300
C1079       C  0.87525515  0.89550561  0.23691391    -0.14800
C1080       C  0.88109489  0.92992788  0.22308687     0.07300
C1081       C  0.88297164  0.96434697  0.23983995    -0.14800
C1082       C  0.87871923  0.96465360  0.26944002    -0.14800
C1083       C  0.87212449  0.93055996  0.28318784     0.07300
C1084       C  0.87068367  0.89583150  0.26672370    -0.14800
H1085       H  0.87312658  0.86863062  0.22427175     0.11300
H1086       H  0.88729924  0.99135118  0.22980598     0.11300
H1087       H  0.88052247  0.99188100  0.28153665     0.11300
H1088       H  0.86629910  0.86901548  0.27695317     0.11300
C1089       C  0.95884708  0.02419939  0.15930140    -0.14800
C1090       C  0.92899434  0.02208563  0.13153072     0.07300
C1091       C  0.92800009  0.04456311  0.10519462    -0.14800
C1092       C  0.95803144  0.06526342  0.10554998    -0.14800
C1093       C  0.98928998  0.06369441  0.13223867     0.07300
C1094       C  0.98858719  0.04476600  0.15968614    -0.14800
H1095       H  0.96011682  0.00762993  0.18013863     0.11300
H1096       H  0.90535187  0.04340589  0.08350167     0.11300
H1097       H  0.95788968  0.07922134  0.08389236     0.11300
H1098       H  0.51205899  0.04310152  0.18057185     0.11300
C1099       C  0.74043319  0.95505266  0.16020521    -0.14800
C1100       C  0.74033212  0.93443126  0.13319065     0.07300
C1101       C  0.70873958  0.93242450  0.10690541    -0.14800
C1102       C  0.67919531  0.95413970  0.10644201    -0.14800
C1103       C  0.68105684  0.97823836  0.13217001     0.07300
C1104       C  0.71131625  0.97690869  0.15958497    -0.14800
H1105       H  0.76418082  0.95706182  0.18088816     0.11300
H1106       H  0.70790583  0.91709632  0.08560226     0.11300
H1107       H  0.65611451  0.95451195  0.08507699     0.11300
H1108       H  0.71326200  0.99462107  0.18001491     0.11300
C1109       C  0.65200456  0.27414824  0.38237499    -0.14800
C1110       C  0.61783552  0.28780958  0.37862290     0.07300
C1111       C  0.59033195  0.26142190  0.37255255    -0.14800
C1112       C  0.59681537  0.22233392  0.37046248    -0.14800
C1113       C  0.63104596  0.20860173  0.37458489     0.07300
C1114       C  0.65851781  0.23501371  0.38037575    -0.14800
H1115       H  0.67384901  0.29377792  0.38670050     0.11300
H1116       H  0.56371468  0.27099483  0.36898315     0.11300
H1117       H  0.57492359  0.20275478  0.36609447     0.11300
H1118       H  0.68513370  0.22541880  0.38399523     0.11300
C1119       C  0.59615325  0.27603570  0.12154760    -0.14800
C1120       C  0.62969886  0.28960435  0.12303767     0.07300
C1121       C  0.65629415  0.26288063  0.12563778    -0.14800
C1122       C  0.64979939  0.22369918  0.12740543    -0.14800
C1123       C  0.61650124  0.21013394  0.12663240     0.07300
C1124       C  0.58966048  0.23680928  0.12334674    -0.14800
H1125       H  0.57492731  0.29582536  0.11962162     0.11300
H1126       H  0.68233124  0.27225388  0.12695935     0.11300
H1127       H  0.67107503  0.20396613  0.12934343     0.11300
H1128       H  0.56366048  0.22740725  0.12210992     0.11300
C1129       C  0.62735007  0.46548570  0.01831892    -0.14800
C1130       C  0.62110125  0.43162531  0.03256384     0.07300
C1131       C  0.61953767  0.39661492  0.01648262    -0.14800
C1132       C  0.62408758  0.39605914  0.48660362    -0.14800
C1133       C  0.63005506  0.43014767  0.47246345     0.07300
C1134       C  0.63191127  0.46490512  0.48881301    -0.14800
H1135       H  0.62915642  0.49286644  0.03010441     0.11300
H1136       H  0.61535791  0.36997217  0.02712525     0.11300
H1137       H  0.62189430  0.36899886  0.47425470     0.11300
H1138       H  0.63625474  0.49170370  0.47847862     0.11300
C1139       C  0.65608483  0.39398042  0.24666848    -0.14800
C1140       C  0.62431004  0.39471994  0.22048472     0.07300
C1141       C  0.59235579  0.39579111  0.22607655    -0.14800
C1142       C  0.59223425  0.39488926  0.25731879    -0.14800
C1143       C  0.62403957  0.39436933  0.28349988     0.07300
C1144       C  0.65599670  0.39454459  0.27791679    -0.14800
H1145       H  0.68115276  0.39314177  0.24292948     0.11300
H1146       H  0.56759327  0.39626006  0.20637032     0.11300
H1147       H  0.56716431  0.39481678  0.26105040     0.11300
H1148       H  0.68074496  0.39401874  0.29760866     0.11300
C1149       C  0.90891990  0.73653127  0.12922321    -0.14800
C1150       C  0.88216627  0.70976476  0.12577582     0.07300
C1151       C  0.84839067  0.72321298  0.12373326    -0.14800
C1152       C  0.84161895  0.76235464  0.12525844    -0.14800
C1153       C  0.86838942  0.78911308  0.12880816     0.07300
C1154       C  0.90212678  0.77570219  0.13069937    -0.14800
H1155       H  0.93517560  0.72722186  0.13115130     0.11300
H1156       H  0.82706336  0.70340467  0.12132661     0.11300
H1157       H  0.81535512  0.77164626  0.12332126     0.11300
H1158       H  0.92341649  0.79555373  0.13306823     0.11300
C1159       C  0.98273339  0.47709288  0.22508701    -0.14800
C1160       C  0.97783371  0.51690678  0.22497183     0.07300
C1161       C  0.99344936  0.53790207  0.25310363    -0.14800
C1162       C  0.51384178  0.51946700  0.28088600    -0.14800
C1163       C  0.51901592  0.47971623  0.28095428     0.07300
C1164       C  0.50315498  0.45864397  0.25287141    -0.14800
H1165       H  0.97081453  0.46022105  0.20374970     0.11300
H1166       H  0.99027145  0.56870846  0.25363332     0.11300
H1167       H  0.52576531  0.53637916  0.30218187     0.11300
H1168       H  0.50644074  0.42787593  0.25231945     0.11300
C1169       C  0.82021131  0.45572020  0.14962213    -0.14800
C1170       C  0.81897278  0.47840381  0.12330656     0.07300
C1171       C  0.78922049  0.47598995  0.09551301    -0.14800
C1172       C  0.75999096  0.45433267  0.09488385    -0.14800
C1173       C  0.75953678  0.43484729  0.12219475     0.07300
C1174       C  0.79060514  0.43410775  0.14909093    -0.14800
H1175       H  0.84281188  0.45711661  0.17134943     0.11300
H1176       H  0.78774197  0.49272829  0.07470208     0.11300
H1177       H  0.73657713  0.45550374  0.07382555     0.11300
H1178       H  0.79089500  0.41988282  0.17068696     0.11300
C1179       C  0.54182068  0.56372166  0.15232525    -0.14800
C1180       C  0.51106769  0.56390868  0.12510572     0.07300
C1181       C  0.51215632  0.54658377  0.09714962    -0.14800
C1182       C  0.54181031  0.52606995  0.09725137    -0.14800
C1183       C  0.57117917  0.52241527  0.12525508     0.07300
C1184       C  0.57178218  0.54308893  0.15239300    -0.14800
H1185       H  0.54155266  0.57626591  0.17438734     0.11300
H1186       H  0.98892948  0.54611832  0.07583856     0.11300
H1187       H  0.54083592  0.51076966  0.07588663     0.11300
H1188       H  0.59401496  0.54055468  0.17430403     0.11300
C1189       C  0.90118106  0.72320967  0.38817456    -0.14800
C1190       C  0.86621077  0.70938256  0.37790742     0.07300
C1191       C  0.83862314  0.73549822  0.36530379    -0.14800
C1192       C  0.84584649  0.77451295  0.36325254    -0.14800
C1193       C  0.88083921  0.78833337  0.37374122     0.07300
C1194       C  0.90839483  0.76216679  0.38609647    -0.14800
H1195       H  0.92313052  0.70376113  0.39773051     0.11300
H1196       H  0.81153327  0.72569075  0.35643288     0.11300
H1197       H  0.82393401  0.79402286  0.35376205     0.11300
H1198       H  0.93550269  0.77193663  0.39499699     0.11300
C1199       C  0.76366535  0.47614901  0.28060663    -0.14800
C1200       C  0.77113403  0.51537997  0.28062346     0.07300
C1201       C  0.75850959  0.53611493  0.25197530    -0.14800
C1202       C  0.73869842  0.51805286  0.22384512    -0.14800
C1203       C  0.73087180  0.47895631  0.22387775     0.07300
C1204       C  0.74370124  0.45807814  0.25243779    -0.14800
H1205       H  0.77312773  0.45948212  0.30229427     0.11300
H1206       H  0.76356974  0.56653075  0.25125079     0.11300
H1207       H  0.72918317  0.53481121  0.20219769     0.11300
H1208       H  0.73832182  0.42771063  0.25307984     0.11300
C1209       C  0.84156249  0.60205798  0.25683157    -0.14800
C1210       C  0.87340491  0.60163873  0.28295069     0.07300
C1211       C  0.90533157  0.60076585  0.27739592    -0.14800
C1212       C  0.90539879  0.60191214  0.24620742    -0.14800
C1213       C  0.87355833  0.60235220  0.22007419     0.07300
C1214       C  0.84160093  0.60163925  0.22559591    -0.14800
H1215       H  0.81657684  0.60287973  0.26062376     0.11300
H1216       H  0.93011584  0.60056700  0.29708962     0.11300
H1217       H  0.93043558  0.60252126  0.24251971     0.11300
H1218       H  0.81684343  0.60210875  0.20590168     0.11300
C1219       C  0.88532247  0.53435770  0.48998461    -0.14800
C1220       C  0.88229252  0.56863487  0.47285647     0.07300
C1221       C  0.87622192  0.60299869  0.48665324    -0.14800
C1222       C  0.87256163  0.60285487  0.01671719    -0.14800
C1223       C  0.87456557  0.56817638  0.03331281     0.07300
C1224       C  0.88164853  0.53418157  0.01965913    -0.14800
H1225       H  0.89001359  0.50742353  0.48002436     0.11300
H1226       H  0.87337501  0.62977129  0.47378344     0.11300
H1227       H  0.86790588  0.62962720  0.02690731     0.11300
H1228       H  0.88403836  0.50701494  0.03190972     0.11300
C1229       C  0.92942219  0.45402080  0.35602290    -0.14800
C1230       C  0.93097278  0.47769257  0.38188193     0.07300
C1231       C  0.96093399  0.47611945  0.40954258    -0.14800
C1232       C  0.99020362  0.45448830  0.41027251    -0.14800
C1233       C  0.99036864  0.43421273  0.38320248     0.07300
C1234       C  0.95903460  0.43242065  0.35665919    -0.14800
H1235       H  0.90659827  0.45473634  0.33444658     0.11300
H1236       H  0.96257464  0.49360053  0.43002723     0.11300
H1237       H  0.51384624  0.45636275  0.43106275     0.11300
H1238       H  0.95855333  0.41752894  0.33525883     0.11300
C1239       C  0.74051221  0.54148503  0.41009911    -0.14800
C1240       C  0.74034672  0.56231940  0.38320438     0.07300
C1241       C  0.70859432  0.56514048  0.35718315    -0.14800
C1242       C  0.67890270  0.54379451  0.35669680    -0.14800
C1243       C  0.68081515  0.51933993  0.38216002     0.07300
C1244       C  0.71119071  0.52010089  0.40950314    -0.14800
H1245       H  0.76441778  0.53888724  0.43057051     0.11300
H1246       H  0.70774065  0.58068569  0.33598531     0.11300
H1247       H  0.65569925  0.54386501  0.33544045     0.11300
H1248       H  0.71312402  0.50212803  0.42976386     0.11300
O1249       O  0.86971580  0.53630038  0.92378915    -0.86800
O1250       O  0.80036218  0.55050678  0.89440090    -0.83900
C1251       C  0.77431535  0.57089478  0.87926229     0.96600
O1252       O  0.77614531  0.59469010  0.85850296    -0.83900
O1253       O  0.82989506  0.65265908  0.87221853    -0.86600
C1254       C  0.85970116  0.66744475  0.87615166     1.01100
O1255       O  0.88461749  0.64624002  0.87573973    -0.79300
O1256       O  0.88892691  0.59587921  0.92571385    -0.79500
C1257       C  0.88059070  0.56721763  0.93917967     1.01100
O1258       O  0.87185196  0.50316635  0.86386245    -0.86800
O1259       O  0.80136480  0.51721024  0.83649463    -0.83900
C1260       C  0.79120206  0.53504609  0.81035303     0.96600
O1261       O  0.79815473  0.56984566  0.80868087    -0.83900
O1262       O  0.84763700  0.62365326  0.81939983    -0.86500
C1263       C  0.87181610  0.60346115  0.81527901     1.01100
O1264       O  0.89348248  0.58501202  0.83832045    -0.79400
O1265       O  0.91390702  0.53877578  0.89383275    -0.79500
C1266       C  0.90399567  0.50772736  0.87929271     1.01100
Cr1267     Cr  0.83672750  0.53038716  0.87871496     1.93700
Cr1268     Cr  0.81547959  0.60793439  0.84234834     1.93200
Cr1269     Cr  0.89201492  0.59046354  0.88236429     1.39100
O1270       O  0.84732720  0.57627360  0.86776714    -1.24600
O1271       O  0.88158344  0.53614783  0.58180826    -0.86800
O1272       O  0.95052552  0.55227576  0.61209898    -0.83900
C1273       C  0.97630882  0.57250898  0.62816319     0.96600
O1274       O  0.97354411  0.59603457  0.64876273    -0.83900
O1275       O  0.91905715  0.65359076  0.63203319    -0.86600
C1276       C  0.88892610  0.66815818  0.62714853     1.01100
O1277       O  0.86389668  0.64677767  0.62684104    -0.79300
O1278       O  0.86227696  0.59560712  0.57813467    -0.79500
C1279       C  0.87232942  0.56689652  0.56590277     1.01100
O1280       O  0.87804065  0.50435248  0.64144755    -0.86800
O1281       O  0.94834143  0.51981171  0.66965396    -0.83900
C1282       C  0.95716958  0.53752732  0.69581210     0.96600
O1283       O  0.94913246  0.57208070  0.69736296    -0.83900
O1284       O  0.89897759  0.62614698  0.68382821    -0.86500
C1285       C  0.87500573  0.60548984  0.68772136     1.01100
O1286       O  0.85397235  0.58661319  0.66453486    -0.85800
O1287       O  0.83607977  0.53892851  0.61000941    -0.79500
C1288       C  0.84592195  0.50845888  0.62548677     1.01100
Cr1289     Cr  0.91363834  0.53165297  0.62708086     1.93700
Cr1290     Cr  0.93280725  0.60968791  0.66289949     1.93200
Cr1291     Cr  0.85714758  0.59103856  0.62093117     1.39100
O1292       O  0.90192253  0.57746916  0.63710145    -1.24600
O1293       O  0.61027542  0.40493941  0.57787127    -0.86800
O1294       O  0.61237746  0.35335244  0.62650423    -0.83900
C1295       C  0.63663409  0.33163885  0.62537681     0.96600
O1296       O  0.66672235  0.34576425  0.62938678    -0.83900
O1297       O  0.72255370  0.40181893  0.64537750    -0.86600
C1298       C  0.72514267  0.42606504  0.62520522     1.01100
O1299       O  0.69940355  0.44684432  0.61001699    -0.79300
O1300       O  0.63053990  0.46404822  0.58139534    -0.79500
C1301       C  0.62026889  0.43346242  0.56542303     1.01100
O1302       O  0.58639821  0.46184775  0.61101567    -0.86800
O1303       O  0.60504864  0.41357237  0.66537239    -0.83900
C1304       C  0.62615073  0.39401129  0.68804319     0.96600
O1305       O  0.64977285  0.37328891  0.68340762    -0.83900
O1306       O  0.70100823  0.42547084  0.69567308    -0.86500
C1307       C  0.70922754  0.45998045  0.69450887     1.01100
O1308       O  0.69962078  0.47847108  0.66868690    -0.79400
O1309       O  0.62935315  0.49562572  0.64200418    -0.79500
C1310       C  0.59702768  0.49208035  0.62660015     1.01100
Cr1311     Cr  0.60667150  0.40936103  0.62119277     1.93700
Cr1312     Cr  0.68255961  0.38887452  0.66087689     1.93200
Cr1313     Cr  0.66373311  0.46776447  0.62637533     1.39100
O1314       O  0.65171773  0.42204941  0.63632721    -1.24600
O1315       O  0.63802425  0.40150612  0.92633518    -0.86800
O1316       O  0.63546009  0.35064708  0.87680699    -0.83900
C1317       C  0.61067209  0.32931842  0.87710500     0.96600
O1318       O  0.58083927  0.34400053  0.87316974    -0.83900
O1319       O  0.52661424  0.40124223  0.85882146    -0.86600
C1320       C  0.52424498  0.42580228  0.87888181     1.01100
O1321       O  0.54982061  0.44707846  0.89354660    -0.79300
O1322       O  0.61905936  0.46126618  0.92341531    -0.79500
C1323       C  0.62918879  0.43051170  0.93916641     1.01100
O1324       O  0.66395520  0.45797976  0.89479362    -0.86800
O1325       O  0.64452074  0.41119436  0.83934217    -0.83900
C1326       C  0.62298792  0.39273291  0.81612637     0.96600
O1327       O  0.59864318  0.37258170  0.82004536    -0.83900
O1328       O  0.54782955  0.42563841  0.80845169    -0.86500
C1329       C  0.54100202  0.46055722  0.80996602     1.01100
O1330       O  0.55191214  0.47884203  0.83585153    -0.79400
O1331       O  0.62233416  0.49303197  0.86364850    -0.79500
C1332       C  0.65431969  0.48874611  0.87980165     1.01100
Cr1333     Cr  0.64226990  0.40631968  0.88326546     1.93700
Cr1334     Cr  0.56603067  0.38816392  0.84273226     1.93200
Cr1335     Cr  0.58672388  0.46643688  0.87822062     1.39100
O1336       O  0.59754879  0.42032302  0.86792954    -1.24600
O1337       O  0.88930167  0.90329684  0.67640472    -0.86800
O1338       O  0.88628008  0.85281775  0.62704801    -0.83900
C1339       C  0.86161086  0.83123993  0.62739803     0.96600
O1340       O  0.83160304  0.84560572  0.62346558    -0.83900
O1341       O  0.77657276  0.90270374  0.60802561    -0.86600
C1342       C  0.77465191  0.92556636  0.62939855     1.01100
O1343       O  0.80096302  0.94500765  0.64543848    -0.79300
O1344       O  0.86960615  0.96257178  0.67389773    -0.79500
C1345       C  0.88010137  0.93178104  0.68947029     1.01100
O1346       O  0.91330681  0.96094814  0.64384754    -0.86800
O1347       O  0.89448389  0.91356538  0.58900411    -0.83900
C1348       C  0.87334677  0.89420096  0.56622155     0.96600
O1349       O  0.84968932  0.87355529  0.57071227    -0.83900
O1350       O  0.79965435  0.92722697  0.55869860    -0.86500
C1351       C  0.79063475  0.96132198  0.56059772     1.01100
O1352       O  0.79962129  0.97878430  0.58695308    -0.79400
O1353       O  0.87035105  0.99569598  0.61383901    -0.79500
C1354       C  0.90270795  0.99173144  0.62907915     1.01100
Cr1355     Cr  0.89276414  0.90861997  0.63309773     1.93700
Cr1356     Cr  0.81676482  0.88951597  0.59280904     1.93200
Cr1357     Cr  0.83606842  0.96712064  0.62906746     1.39100
O1358       O  0.84788085  0.92180540  0.61816130    -1.24600
O1359       O  0.86063052  0.90299264  0.82798198    -0.86800
O1360       O  0.86290315  0.85147062  0.87662179    -0.83900
C1361       C  0.88778945  0.83022845  0.87619255     0.96600
O1362       O  0.91788131  0.84478617  0.88106185    -0.83900
O1363       O  0.97244075  0.90166866  0.89670719    -0.86600
C1364       C  0.97478445  0.92507367  0.87588813     1.01100
O1365       O  0.94902214  0.94573085  0.86048612    -0.79300
O1366       O  0.88004337  0.96240064  0.83148393    -0.79500
C1367       C  0.87034634  0.93170582  0.81555387     1.01100
O1368       O  0.83561372  0.95979495  0.86070017    -0.86800
O1369       O  0.85404535  0.91185850  0.91502168    -0.83900
C1370       C  0.87530624  0.89293857  0.93801350     0.96600
O1371       O  0.89928505  0.87246835  0.93383779    -0.83900
O1372       O  0.94974435  0.92599680  0.94637029    -0.86500
C1373       C  0.95815885  0.96039677  0.94486407     1.01100
O1374       O  0.94879203  0.97830436  0.91876249    -0.79400
O1375       O  0.87811697  0.99433447  0.89158176    -0.79500
C1376       C  0.84583697  0.99026082  0.87612066     1.01100
Cr1377     Cr  0.85643267  0.90749646  0.87112042     1.93700
Cr1378     Cr  0.93239315  0.88853649  0.91193963     1.93200
Cr1379     Cr  0.91301662  0.96669077  0.87645841     1.39100
O1380       O  0.90131124  0.92093663  0.88667196    -1.24600
O1381       O  0.61948921  0.03662128  0.67387237    -0.86800
O1382       O  0.54989624  0.05126472  0.64414031    -0.83900
C1383       C  0.52399760  0.07165218  0.62850036     0.96600
O1384       O  0.52637680  0.09526104  0.60783888    -0.83900
O1385       O  0.58008022  0.15348694  0.62271676    -0.86600
C1386       C  0.60986402  0.16834824  0.62658657     1.01100
O1387       O  0.63500723  0.14699837  0.62704498    -0.79300
O1388       O  0.63849727  0.09627614  0.67662969    -0.79500
C1389       C  0.62956446  0.06745908  0.68953494     1.01100
O1390       O  0.62234371  0.00412400  0.61422749    -0.86800
O1391       O  0.55170638  0.01839265  0.58648005    -0.83900
C1392       C  0.54213841  0.03606721  0.56027840     0.96600
O1393       O  0.54966665  0.07073217  0.55861816    -0.83900
O1394       O  0.59901930  0.12523393  0.57058732    -0.86500
C1395       C  0.62303852  0.10491988  0.56640724     1.01100
O1396       O  0.64461521  0.08637675  0.58948099    -0.79400
O1397       O  0.66430432  0.03954084  0.64466683    -0.79500
C1398       C  0.65449923  0.00864628  0.62980573     1.01100
Cr1399     Cr  0.58681635  0.03119951  0.62881440     1.93700
Cr1400     Cr  0.56623268  0.10885912  0.59257899     1.93200
Cr1401     Cr  0.64245737  0.09130367  0.63345124     1.39100
O1402       O  0.59777107  0.07714144  0.61824573    -1.24600
O1403       O  0.62987263  0.03478229  0.83145843    -0.86800
O1404       O  0.69872122  0.05102691  0.86133861    -0.83900
C1405       C  0.72471007  0.07087861  0.87746832     0.96600
O1406       O  0.72217922  0.09421419  0.89829061    -0.83900
O1407       O  0.66758734  0.15162666  0.88132485    -0.86600
C1408       C  0.63751715  0.16634088  0.87644593     1.01100
O1409       O  0.61253565  0.14522893  0.87680737    -0.79300
O1410       O  0.61006205  0.09406765  0.82819408    -0.79500
C1411       C  0.61990747  0.06554033  0.81565411     1.01100
O1412       O  0.62709764  0.00253136  0.89123590    -0.86800
O1413       O  0.69745413  0.01852286  0.91939660    -0.83900
C1414       C  0.70613470  0.03629760  0.94558890     0.96600
O1415       O  0.69770554  0.07071707  0.94702005    -0.83900
O1416       O  0.64779817  0.12486288  0.93356138    -0.86500
C1417       C  0.62404997  0.10421600  0.93788424     1.01100
O1418       O  0.60297483  0.08500485  0.91496365    -0.79400
O1419       O  0.58472598  0.03717659  0.86036032    -0.79500
C1420       C  0.59494289  0.00647917  0.87539641     1.01100
Cr1421     Cr  0.66229962  0.03017711  0.87671674     1.93700
Cr1422     Cr  0.68145129  0.10810761  0.91247370     1.93200
Cr1423     Cr  0.60565281  0.08939011  0.87115314     1.39100
O1424       O  0.65048205  0.07585796  0.88689555    -1.24600
C1425       C  0.62484147  0.10286885  0.73717110    -0.14800
C1426       C  0.62978766  0.06853259  0.72271268     0.07300
C1427       C  0.63050295  0.03377565  0.73873315    -0.14800
C1428       C  0.62627421  0.03310536  0.76832507    -0.14800
C1429       C  0.62095503  0.06716588  0.78283877     0.07300
C1430       C  0.62033189  0.10217962  0.76699451    -0.14800
H1431       H  0.62354440  0.13000933  0.72508871     0.11300
H1432       H  0.63403127  0.00679104  0.72819443     0.11300
H1433       H  0.62725114  0.00564951  0.77989378     0.11300
H1434       H  0.61683192  0.12896028  0.77780894     0.11300
C1435       C  0.65517012  0.10327790  0.49652701    -0.14800
C1436       C  0.62303169  0.10242212  0.97046240     0.07300
C1437       C  0.59129968  0.10186144  0.97637001    -0.14800
C1438       C  0.59182668  0.10328600  0.50793924    -0.14800
C1439       C  0.62390917  0.10298203  0.53381860     0.07300
C1440       C  0.65560841  0.10226610  0.52788092    -0.14800
H1441       H  0.67982215  0.10359196  0.99234136     0.11300
H1442       H  0.56635850  0.10219206  0.95684877     0.11300
H1443       H  0.56702046  0.10426613  0.51200132     0.11300
H1444       H  0.68055803  0.10238299  0.54736105     0.11300
C1445       C  0.98810781  0.01867036  0.97395566    -0.14800
C1446       C  0.97971632  0.97973408  0.97429511     0.07300
C1447       C  0.49236166  0.95915067  0.00302021    -0.14800
C1448       C  0.51289919  0.97731163  0.53125309    -0.14800
C1449       C  0.52116506  0.01629870  0.53086290     0.07300
C1450       C  0.00852501  0.03661599  0.50208933    -0.14800
H1451       H  0.97886702  0.03516902  0.95214794     0.11300
H1452       H  0.48676961  0.92893034  0.00393366     0.11300
H1453       H  0.52219816  0.96088619  0.55309105     0.11300
H1454       H  0.01410293  0.06682266  0.50107461     0.11300
C1455       C  0.82014146  0.04176521  0.90139439    -0.14800
C1456       C  0.81922220  0.02015114  0.87460265     0.07300
C1457       C  0.78951293  0.02298462  0.84679490    -0.14800
C1458       C  0.75997801  0.04381206  0.84659219    -0.14800
C1459       C  0.75926539  0.06217737  0.87429288     0.07300
C1460       C  0.79026571  0.06262694  0.90125736    -0.14800
H1461       H  0.84266043  0.03994275  0.92315360     0.11300
H1462       H  0.78826525  0.00701008  0.82566299     0.11300
H1463       H  0.73660228  0.04289250  0.82548430     0.11300
H1464       H  0.79032253  0.07598799  0.92313099     0.11300
C1465       C  0.54039674  0.93147135  0.89866596    -0.14800
C1466       C  0.50906532  0.93307381  0.87208694     0.07300
C1467       C  0.50943693  0.95252261  0.84474600    -0.14800
C1468       C  0.53875904  0.97394048  0.84531040    -0.14800
C1469       C  0.56857669  0.97610168  0.87307359     0.07300
C1470       C  0.57006202  0.95288031  0.89914731    -0.14800
H1471       H  0.54081790  0.91699793  0.92019748     0.11300
H1472       H  0.98592937  0.95406688  0.82385527     0.11300
H1473       H  0.53720019  0.99095117  0.82462194     0.11300
H1474       H  0.59280832  0.95391596  0.92076902     0.11300
C1475       C  0.75816288  0.01876653  0.53209493    -0.14800
C1476       C  0.76874421  0.98063758  0.53130527     0.07300
C1477       C  0.75803091  0.96077813  0.50216255    -0.14800
C1478       C  0.73757683  0.97867658  0.97452897    -0.14800
C1479       C  0.72714289  0.01688306  0.97517671     0.07300
C1480       C  0.73762728  0.03674776  0.00432347    -0.14800
H1481       H  0.76594385  0.03472463  0.55420412     0.11300
H1482       H  0.76552971  0.93121529  0.50082222     0.11300
H1483       H  0.72997872  0.96267465  0.95244818     0.11300
H1484       H  0.73042447  0.06639201  0.00555884     0.11300
C1485       C  0.84254543  0.89314873  0.50765240    -0.14800
C1486       C  0.87441934  0.89542328  0.53364752     0.07300
C1487       C  0.90618524  0.89773039  0.52786298    -0.14800
C1488       C  0.90602729  0.89650946  0.49658474    -0.14800
C1489       C  0.87407498  0.89480799  0.97052683     0.07300
C1490       C  0.84225188  0.89350508  0.97627278    -0.14800
H1491       H  0.81761568  0.89109192  0.51159124     0.11300
H1492       H  0.93099557  0.89923936  0.54742162     0.11300
H1493       H  0.93099890  0.89703780  0.49265065     0.11300
H1494       H  0.81746909  0.89167445  0.95668728     0.11300
C1495       C  0.87538860  0.89561104  0.73670570    -0.14800
C1496       C  0.88043954  0.93020284  0.72266013     0.07300
C1497       C  0.88137620  0.96466581  0.73912295    -0.14800
C1498       C  0.87716539  0.96482273  0.76872656    -0.14800
C1499       C  0.87158794  0.93052251  0.78278484     0.07300
C1500       C  0.87087842  0.89577985  0.76653741    -0.14800
H1501       H  0.87395946  0.86868711  0.72427606     0.11300
H1502       H  0.88503392  0.99180614  0.72890928     0.11300
H1503       H  0.87830121  0.99208584  0.78063283     0.11300
H1504       H  0.86724649  0.86883499  0.77700742     0.11300
C1505       C  0.95873497  0.02456039  0.65902042    -0.14800
C1506       C  0.92907940  0.02202922  0.63111780     0.07300
C1507       C  0.92829374  0.04394006  0.60456158    -0.14800
C1508       C  0.95834561  0.06454590  0.60490611    -0.14800
C1509       C  0.98941777  0.06343160  0.63180107     0.07300
C1510       C  0.98852145  0.04501602  0.65938532    -0.14800
H1511       H  0.95981830  0.00839867  0.68000383     0.11300
H1512       H  0.90580537  0.04240232  0.58276009     0.11300
H1513       H  0.95838021  0.07808529  0.58314212     0.11300
H1514       H  0.51200399  0.04353454  0.68049140     0.11300
C1515       C  0.74058210  0.95536820  0.66016433    -0.14800
C1516       C  0.74044105  0.93466806  0.63317514     0.07300
C1517       C  0.70885084  0.93265475  0.60689589    -0.14800
C1518       C  0.67935258  0.95446570  0.60639290    -0.14800
C1519       C  0.68126583  0.97864940  0.63208108     0.07300
C1520       C  0.71151353  0.97732352  0.65950358    -0.14800
H1521       H  0.76434193  0.95738562  0.68083729     0.11300
H1522       H  0.70800228  0.91727341  0.58560917     0.11300
H1523       H  0.65627283  0.95483945  0.58502688     0.11300
H1524       H  0.71348704  0.99510325  0.67990397     0.11300
C1525       C  0.65178716  0.27375337  0.88380468    -0.14800
C1526       C  0.61724383  0.28740234  0.87839273     0.07300
C1527       C  0.58958099  0.26100758  0.87064075    -0.14800
C1528       C  0.59628158  0.22194226  0.86850638    -0.14800
C1529       C  0.63087026  0.20824736  0.87423990     0.07300
C1530       C  0.65849986  0.23467342  0.88172584    -0.14800
H1531       H  0.67379161  0.29337569  0.88950257     0.11300
H1532       H  0.56269942  0.27057332  0.86573175     0.11300
H1533       H  0.57426677  0.20233217  0.86280200     0.11300
H1534       H  0.68538639  0.22510456  0.88668722     0.11300
C1535       C  0.59588958  0.27630185  0.62203724    -0.14800
C1536       C  0.62935392  0.28979515  0.62319490     0.07300
C1537       C  0.65585417  0.26304816  0.62559651    -0.14800
C1538       C  0.64935171  0.22390669  0.62741963    -0.14800
C1539       C  0.61612064  0.21037442  0.62686105     0.07300
C1540       C  0.58936643  0.23707639  0.62384939    -0.14800
H1541       H  0.57475870  0.29614094  0.62031558     0.11300
H1542       H  0.68183292  0.27237216  0.62669212     0.11300
H1543       H  0.67057341  0.20417053  0.62917374     0.11300
H1544       H  0.56343048  0.22770139  0.62282455     0.11300
C1545       C  0.62778487  0.46578778  0.51847244    -0.14800
C1546       C  0.62133091  0.43192652  0.53261122     0.07300
C1547       C  0.61962581  0.39697212  0.51641834    -0.14800
C1548       C  0.62391092  0.39565089  0.98664097    -0.14800
C1549       C  0.62965023  0.42974260  0.97238187     0.07300
C1550       C  0.63139825  0.46454972  0.98864019    -0.14800
H1551       H  0.62969601  0.49313608  0.53032890     0.11300
H1552       H  0.61526710  0.37032457  0.52695428     0.11300
H1553       H  0.62183834  0.36854666  0.97437289     0.11300
H1554       H  0.63559583  0.49135023  0.97822108     0.11300
C1555       C  0.65662736  0.39485165  0.74685255    -0.14800
C1556       C  0.62485722  0.39516574  0.72063551     0.07300
C1557       C  0.59288388  0.39581684  0.72618616    -0.14800
C1558       C  0.59269997  0.39483559  0.75739603    -0.14800
C1559       C  0.62446351  0.39458364  0.78362260     0.07300
C1560       C  0.65646381  0.39529183  0.77809898    -0.14800
H1561       H  0.68170199  0.39441624  0.74314508     0.11300
H1562       H  0.56812998  0.39598671  0.70645067     0.11300
H1563       H  0.56760757  0.39444542  0.76105707     0.11300
H1564       H  0.68119005  0.39506027  0.79782284     0.11300
C1565       C  0.90878031  0.73677309  0.62856376    -0.14800
C1566       C  0.88208960  0.71005632  0.62551105     0.07300
C1567       C  0.84845993  0.72353928  0.62388421    -0.14800
C1568       C  0.84178422  0.76268017  0.62547657    -0.14800
C1569       C  0.86850162  0.78938531  0.62866756     0.07300
C1570       C  0.90207884  0.77594634  0.63009899    -0.14800
H1571       H  0.93491816  0.72742273  0.63014612     0.11300
H1572       H  0.82719216  0.70376234  0.62178876     0.11300
H1573       H  0.81563970  0.77201245  0.62389722     0.11300
H1574       H  0.92330719  0.79577073  0.63216003     0.11300
C1575       C  0.98217281  0.47779436  0.72533464    -0.14800
C1576       C  0.97790804  0.51770376  0.72515962     0.07300
C1577       C  0.99420470  0.53871883  0.75315210    -0.14800
C1578       C  0.51477126  0.52007200  0.78072038    -0.14800
C1579       C  0.51936887  0.48021388  0.78082028     0.07300
C1580       C  0.50279087  0.45914380  0.75288672    -0.14800
H1581       H  0.96966421  0.46091274  0.70411051     0.11300
H1582       H  0.99146063  0.56957500  0.75361726     0.11300
H1583       H  0.52725622  0.53697420  0.80191651     0.11300
H1584       H  0.50559913  0.42832148  0.75238055     0.11300
C1585       C  0.82038246  0.45556970  0.64956954    -0.14800
C1586       C  0.81920643  0.47847740  0.62339153     0.07300
C1587       C  0.78949528  0.47620292  0.59554353    -0.14800
C1588       C  0.76019860  0.45457808  0.59477570    -0.14800
C1589       C  0.75965998  0.43492808  0.62198047     0.07300
C1590       C  0.79072175  0.43394195  0.64888075    -0.14800
H1591       H  0.84295064  0.45683130  0.67133043     0.11300
H1592       H  0.78807079  0.49309072  0.57482401     0.11300
H1593       H  0.73678404  0.45594535  0.57372634     0.11300
H1594       H  0.79093763  0.41958105  0.67039933     0.11300
C1595       C  0.54155507  0.56365926  0.65242973    -0.14800
C1596       C  0.51087889  0.56413148  0.62514869     0.07300
C1597       C  0.51195541  0.54685663  0.59716727    -0.14800
C1598       C  0.54151773  0.52614411  0.59728531    -0.14800
C1599       C  0.57081614  0.52228526  0.62531943     0.07300
C1600       C  0.57142483  0.54285603  0.65250731    -0.14800
H1601       H  0.54128279  0.57614040  0.67451250     0.11300
H1602       H  0.98892235  0.54667554  0.57589641     0.11300
H1603       H  0.54054438  0.51092667  0.57588425     0.11300
H1604       H  0.59360233  0.54015944  0.67444345     0.11300
C1605       C  0.90121233  0.72309131  0.88797453    -0.14800
C1606       C  0.86618878  0.70941237  0.87776859     0.07300
C1607       C  0.83868759  0.73564588  0.86527603    -0.14800
C1608       C  0.84604301  0.77462640  0.86326837    -0.14800
C1609       C  0.88108339  0.78831246  0.87372245     0.07300
C1610       C  0.90855940  0.76202542  0.88595839    -0.14800
H1611       H  0.92310002  0.70354422  0.89744060     0.11300
H1612       H  0.81155941  0.72595742  0.85645396     0.11300
H1613       H  0.82418345  0.79422204  0.85385258     0.11300
H1614       H  0.93570398  0.77167747  0.89481276     0.11300
C1615       C  0.76461334  0.47576362  0.78050285    -0.14800
C1616       C  0.77045441  0.51539256  0.78086916     0.07300
C1617       C  0.75626640  0.53655135  0.75259172    -0.14800
C1618       C  0.73662291  0.51847932  0.72443885    -0.14800
C1619       C  0.73059528  0.47893150  0.72406761     0.07300
C1620       C  0.74484101  0.45765523  0.75228287    -0.14800
H1621       H  0.77533198  0.45879889  0.80192036     0.11300
H1622       H  0.76005822  0.56726356  0.75217850     0.11300
H1623       H  0.72588428  0.53555842  0.70307302     0.11300
H1624       H  0.74078406  0.42697142  0.75258656     0.11300
C1625       C  0.84144747  0.60076610  0.75671445    -0.14800
C1626       C  0.87320843  0.60183468  0.78288148     0.07300
C1627       C  0.90520910  0.60286125  0.77747100    -0.14800
C1628       C  0.90537218  0.60431357  0.74632326    -0.14800
C1629       C  0.87359962  0.60329320  0.72011997     0.07300
C1630       C  0.84164393  0.60076261  0.72553661    -0.14800
H1631       H  0.81641529  0.60001745  0.76041871     0.11300
H1632       H  0.92991331  0.60384701  0.79724055     0.11300
H1633       H  0.93042531  0.60617190  0.74271913     0.11300
H1634       H  0.81694166  0.59998294  0.70578449     0.11300
C1635       C  0.88534769  0.53448307  0.98982801    -0.14800
C1636       C  0.88243004  0.56880838  0.97278984     0.07300
C1637       C  0.87661298  0.60318724  0.98671332    -0.14800
C1638       C  0.87210843  0.60271900  0.51663283    -0.14800
C1639       C  0.87431795  0.56810887  0.53335889     0.07300
C1640       C  0.88158152  0.53411214  0.51981258    -0.14800
H1641       H  0.88987082  0.50754116  0.97977622     0.11300
H1642       H  0.87388787  0.63000216  0.97392113     0.11300
H1643       H  0.86728265  0.62948992  0.52671781     0.11300
H1644       H  0.88411643  0.50699762  0.53215930     0.11300
C1645       C  0.92903900  0.45410352  0.85574338    -0.14800
C1646       C  0.93062667  0.47766529  0.88167620     0.07300
C1647       C  0.96061687  0.47600777  0.90930468    -0.14800
C1648       C  0.98988239  0.45442871  0.90992542    -0.14800
C1649       C  0.99002012  0.43429545  0.88277577     0.07300
C1650       C  0.95865316  0.43257282  0.85626276    -0.14800
H1651       H  0.90618642  0.45487843  0.83419400     0.11300
H1652       H  0.96228622  0.49339699  0.92984589     0.11300
H1653       H  0.51357988  0.45625446  0.93064135     0.11300
H1654       H  0.95813780  0.41778810  0.83480719     0.11300
C1655       C  0.74070322  0.54100205  0.91029246    -0.14800
C1656       C  0.74031961  0.56216173  0.88348033     0.07300
C1657       C  0.70849124  0.56499845  0.85755455    -0.14800
C1658       C  0.67893069  0.54343992  0.85708631    -0.14800
C1659       C  0.68106295  0.51871260  0.88244193     0.07300
C1660       C  0.71153616  0.51934399  0.90968425    -0.14800
H1661       H  0.76468006  0.53837138  0.93068968     0.11300
H1662       H  0.70746988  0.58076589  0.83641065     0.11300
H1663       H  0.65562951  0.54361466  0.83591607     0.11300
H1664       H  0.71364007  0.50115561  0.92986296     0.11300
loop_ 
_geom_bond_atom_site_label_1 
_geom_bond_atom_site_label_2 
_geom_bond_distance 
_geom_bond_site_symmetry_2 
_ccdc_geom_bond_type 
O1          Cr19   2.011       .  S
O1            C9   1.274       .  A
O2          Cr19   1.964       .  S
O2            C3   1.259       .  A
C3            O4   1.267       .  A
C3          C408   1.482       .  S
O4          Cr20   2.014       .  S
O5          Cr20   2.005       .  S
O5            C6   1.266       .  A
C6            O7   1.255       .  A
C6          C358   1.485       .  S
O7          Cr21   1.976       .  S
O8          Cr21   1.995       .  S
O8            C9   1.272       .  A
C9          C388   1.481       .  S
O10         Cr19   2.001       .  S
O10          C18   1.255       .  A
O11         Cr19   1.993       .  S
O11          C12   1.263       .  A
C12          O13   1.254       .  A
C12         C368   1.469       .  S
O13         Cr20   1.950       .  S
O14         Cr20   1.990       .  S
O14          C15   1.268       .  A
C15          O16   1.275       .  A
C15         C378   1.472       .  S
O16         Cr21   2.002       .  S
O17         Cr21   1.995       .  S
O17          C18   1.256       .  A
C18         C398   1.480       .  S
Cr19         O22   1.770       .  S
Cr20         O22   1.779       .  S
Cr21         O22   1.768       .  S
O23         Cr41   2.001       .  S
O23          C31   1.271       .  A
O24         Cr41   1.969       .  S
O24          C25   1.260       .  A
C25          O26   1.267       .  A
C25        C1180   1.482       .  S
O26         Cr42   2.013       .  S
O27         Cr42   2.010       .  S
O27          C28   1.268       .  A
C28          O29   1.254       .  A
C28         C318   1.485       .  S
O29         Cr43   1.969       .  S
O30         Cr43   2.002       .  S
O30          C31   1.272       .  A
C31         C391   1.486       .  S
O32         Cr41   2.006       .  S
O32          C40   1.257       .  A
O33         Cr41   1.983       .  S
O33          C34   1.261       .  A
C34          O35   1.256       .  A
C34         C328   1.467       .  S
O35         Cr42   1.958       .  S
O36         Cr42   1.989       .  S
O36          C37   1.267       .  A
C37          O38   1.276       .  A
C37         C381   1.472       .  S
O38         Cr43   2.005       .  S
O39         Cr43   1.996       .  S
O39          C40   1.256       .  A
C40         C338   1.483       .  S
Cr41         O44   1.767       .  S
Cr42         O44   1.778       .  S
Cr43         O44   1.768       .  S
O45         Cr63   1.998       .  S
O45          C53   1.271       .  A
O46         Cr63   1.974       .  S
O46          C47   1.255       .  A
C47          O48   1.268       .  A
C47         C288   1.486       .  S
O48         Cr64   2.009       .  S
O49         Cr64   2.019       .  S
O49          C50   1.267       .  A
C50          O51   1.258       .  A
C50         C341   1.484       .  S
O51         Cr65   1.967       .  S
O52         Cr65   2.002       .  S
O52          C53   1.271       .  A
C53         C298   1.483       .  S
O54         Cr63   1.994       .  S
O54          C62   1.256       .  A
O55         Cr63   2.005       .  S
O55          C56   1.275       .  A
C56          O57   1.269       .  A
C56         C308   1.477       .  S
O57         Cr64   1.996       .  S
O58         Cr64   1.952       .  S
O58          C59   1.255       .  A
C59          O60   1.263       .  A
C59         C371   1.467       .  S
O60         Cr65   1.990       .  S
O61         Cr65   2.007       .  S
O61          C62   1.258       .  A
C62         C351   1.481       .  S
Cr63         O66   1.767       .  S
Cr64         O66   1.777       .  S
Cr65         O66   1.768       .  S
O67         Cr85   2.000       .  S
O67          C75   1.273       .  A
O68         Cr85   1.967       .  S
O68          C69   1.252       .  A
C69          O70   1.265       .  A
C69         C278   1.482       .  S
O70         Cr86   2.006       .  S
O71         Cr86   2.011       .  S
O71          C72   1.267       .  A
C72          O73   1.259       .  A
C72        C1233   1.480   1_455  S
O73         Cr87   1.964       .  S
O74         Cr87   2.004       .  S
O74          C75   1.272       .  A
C75         C301   1.480       .  S
O76         Cr85   1.992       .  S
O76          C84   1.255       .  A
O77         Cr85   2.005       .  S
O77          C78   1.277       .  A
C78          O79   1.270       .  A
C78         C311   1.476       .  S
O79         Cr86   1.995       .  S
O80         Cr86   1.956       .  S
O80          C81   1.255       .  A
C81          O82   1.262       .  A
C81         C331   1.467       .  S
O82         Cr87   1.984       .  S
O83         Cr87   2.003       .  S
O83          C84   1.256       .  A
C84         C411   1.480       .  S
Cr85         O88   1.768       .  S
Cr86         O88   1.780       .  S
Cr87         O88   1.768       .  S
O89        Cr107   2.000       .  S
O89          C97   1.271       .  A
O90        Cr107   1.971       .  S
O90          C91   1.255       .  A
C91          O92   1.268       .  A
C91         C321   1.484       .  S
O92        Cr108   2.006       .  S
O93        Cr108   2.019       .  S
O93          C94   1.267       .  A
C94          O95   1.258       .  A
C94         C268   1.485       .  S
O95        Cr109   1.966       .  S
O96        Cr109   2.006       .  S
O96          C97   1.271       .  A
C97         C248   1.482       .  S
O98        Cr107   1.995       .  S
O98         C106   1.257       .  A
O99        Cr107   2.007       .  S
O99         C100   1.276       .  A
C100        O101   1.267       .  A
C100        C238   1.475       .  S
O101       Cr108   1.990       .  S
O102       Cr108   1.952       .  S
O102        C103   1.255       .  A
C103        O104   1.265       .  A
C103        C228   1.470       .  S
O104       Cr109   1.997       .  S
O105       Cr109   2.008       .  S
O105        C106   1.259       .  A
C106        C258   1.483   1_565  S
Cr107       O110   1.765       .  S
Cr108       O110   1.778       .  S
Cr109       O110   1.768       .  S
O111       Cr129   2.000       .  S
O111        C119   1.272       .  A
O112       Cr129   1.976       .  S
O112        C113   1.254       .  A
C113        O114   1.266       .  A
C113        C361   1.484       .  S
O114       Cr130   2.006       .  S
O115       Cr130   2.012       .  S
O115        C116   1.267       .  A
C116        O117   1.260       .  A
C116       C1050   1.482       .  S
O117       Cr131   1.968       .  S
O118       Cr131   2.003       .  S
O118        C119   1.271       .  A
C119        C251   1.485       .  S
O120       Cr129   1.997       .  S
O120        C128   1.256       .  A
O121       Cr129   2.004       .  S
O121        C122   1.276       .  A
C122        O123   1.268       .  A
C122        C241   1.472       .  S
O123       Cr130   1.991       .  S
O124       Cr130   1.958       .  S
O124        C125   1.256       .  A
C125        O126   1.262       .  A
C125        C198   1.470       .  S
O126       Cr131   1.987       .  S
O127       Cr131   2.007       .  S
O127        C128   1.257       .  A
C128        C208   1.482   1_565  S
Cr129       O132   1.770       .  S
Cr130       O132   1.778       .  S
Cr131       O132   1.769       .  S
O133       Cr151   2.005       .  S
O133        C141   1.272       .  A
O134       Cr151   1.971       .  S
O134        C135   1.260       .  A
C135        O136   1.267       .  A
C135       C1093   1.485   1_455  S
O136       Cr152   2.013       .  S
O137       Cr152   2.008       .  S
O137        C138   1.267       .  A
C138        O139   1.254       .  A
C138        C291   1.487       .  S
O139       Cr153   1.973       .  S
O140       Cr153   2.001       .  S
O140        C141   1.273       .  A
C141        C178   1.483       .  S
O142       Cr151   2.006       .  S
O142        C150   1.256       .  A
O143       Cr151   1.988       .  S
O143        C144   1.262       .  A
C144        O145   1.255       .  A
C144        C201   1.469       .  S
O145       Cr152   1.955       .  S
O146       Cr152   1.989       .  S
O146        C147   1.267       .  A
C147        O148   1.276       .  A
C147        C191   1.474       .  S
O148       Cr153   2.007       .  S
O149       Cr153   1.997       .  S
O149        C150   1.256       .  A
C150        C271   1.484   1_545  S
Cr151       O154   1.770       .  S
Cr152       O154   1.779       .  S
Cr153       O154   1.769       .  S
O155       Cr173   2.005       .  S
O155        C163   1.272       .  A
O156       Cr173   1.967       .  S
O156        C157   1.258       .  A
C157        O158   1.266       .  A
C157        C211   1.482       .  S
O158       Cr174   2.014       .  S
O159       Cr174   2.006       .  S
O159        C160   1.267       .  A
C160        O161   1.255       .  A
C160        C281   1.482       .  S
O161       Cr175   1.970       .  S
O162       Cr175   1.998       .  S
O162        C163   1.271       .  A
C163        C181   1.485       .  S
O164       Cr173   2.004       .  S
O164        C172   1.257       .  A
O165       Cr173   1.993       .  S
O165        C166   1.264       .  A
C166        O167   1.255       .  A
C166        C231   1.470       .  S
O167       Cr174   1.956       .  S
O168       Cr174   1.989       .  S
O168        C169   1.267       .  A
C169        O170   1.275       .  A
C169        C188   1.472       .  S
O170       Cr175   2.005       .  S
O171       Cr175   1.995       .  S
O171        C172   1.257       .  A
C172        C221   1.482   1_545  S
Cr173       O176   1.766       .  S
Cr174       O176   1.777       .  S
Cr175       O176   1.768       .  S
C177        C178   1.407       .  A
C177        C182   1.408       .  A
C177        H183   1.083       .  S
C178        C179   1.404       .  A
C179        C180   1.392       .  A
C179        H184   1.083       .  S
C180        C181   1.405       .  A
C180        H185   1.083       .  S
C181        C182   1.409       .  A
C182        H186   1.083       .  S
C187        C192   1.398   1_556  A
C187        C604   1.410       .  A
C187        H609   1.078       .  S
C188        C189   1.396       .  A
C188        C603   1.411       .  A
C189        C606   1.397       .  A
C189        H194   1.084       .  S
C190        C191   1.412       .  A
C190        C605   1.398   1_554  A
C190        H195   1.080       .  S
C191        C192   1.396       .  A
C192        H196   1.083       .  S
H193        C603   1.078       .  S
C197        C198   1.401   1_545  A
C197        C618   1.390       .  A
C197        H203   1.083       .  S
C198       C1031   1.406       .  A
C199       C1030   1.406       .  A
C199        C616   1.393   1_655  A
C199        H204   1.082       .  S
C200        C201   1.402   1_565  A
C200        C615   1.392   1_455  A
C200        H205   1.083       .  S
C201       C1034   1.406       .  A
C202        C613   1.391   1_554  A
C202       C1033   1.406       .  A
C202        H206   1.081       .  S
C207        C208   1.405       .  A
C207        C212   1.407       .  A
C207        H213   1.083       .  S
C208        C209   1.405       .  A
C209        C210   1.395       .  A
C209        H214   1.083       .  S
C210        C211   1.403       .  A
C210        H215   1.083       .  S
C211        C212   1.410       .  A
C212        H216   1.083       .  S
C217        C218   1.410       .  A
C217        C222   1.407       .  A
C217        H223   1.083       .  S
C218        C948   1.482   1_455  S
C218        C219   1.403       .  A
C219        C220   1.394       .  A
C219       H1056   1.083   1_455  S
C220        C221   1.405       .  A
C220        H225   1.083       .  S
C221        C222   1.405       .  A
C222        H226   1.083       .  S
H224       C1051   1.083       .  S
C227        C228   1.401   1_545  A
C227        C648   1.392       .  A
C227        H233   1.083       .  S
C228        C229   1.407       .  A
C229        C646   1.391   1_554  A
C229        H234   1.082       .  S
C230        C231   1.401   1_565  A
C230        C645   1.391       .  A
C230        H235   1.083       .  S
C231        C232   1.407       .  A
C232        C643   1.392       .  A
C232        H236   1.080       .  S
C237        C238   1.411       .  A
C237        C658   1.398   1_554  A
C237        H243   1.084       .  S
C238        C239   1.397       .  A
C239        C240   1.398   1_554  A
C239        H244   1.083       .  S
C240        C657   1.410       .  A
C240        H245   1.082       .  S
C241        C242   1.396       .  A
C241        C656   1.410       .  A
C242        C653   1.397       .  A
C242        H246   1.083       .  S
C247        C248   1.408       .  A
C247        C252   1.408       .  A
C247        H253   1.082       .  S
C248        C249   1.403       .  A
C249        C250   1.393       .  A
C249        H254   1.083       .  S
C250        C251   1.406       .  A
C250        H255   1.083       .  S
C251        C252   1.408       .  A
C252        H256   1.083       .  S
C257        C258   1.406       .  A
C257        C262   1.395       .  A
C257        H263   1.083       .  S
C258        C259   1.405       .  A
C259        C260   1.408       .  A
C259        H264   1.083       .  S
C260        C261   1.411       .  A
C260        H265   1.083       .  S
C261        C967   1.485       .  S
C261        C262   1.403       .  A
C262       H1098   1.083       .  S
H266       C1094   1.083   1_455  S
C267        C268   1.405       .  A
C267        C272   1.394       .  A
C267        H273   1.083       .  S
C268        C269   1.410       .  A
C269        C270   1.408       .  A
C269        H274   1.083       .  S
C270        C271   1.406       .  A
C270        H275   1.083       .  S
C271        C272   1.405       .  A
C272        H276   1.083       .  S
C277        C278   1.416       .  A
C277        C282   1.399       .  A
C277        H283   1.081       .  S
C278        C279   1.397       .  A
C279        C280   1.397       .  A
C279        H284   1.085       .  S
C280        C281   1.415       .  A
C280        H285   1.081       .  S
C281        C282   1.397       .  A
C282        H286   1.085       .  S
C287        C288   1.416       .  A
C287        C292   1.401       .  A
C287        H293   1.081       .  S
C288        C289   1.397       .  A
C289        C290   1.399       .  A
C289        H294   1.084       .  S
C290        C291   1.416       .  A
C290        H295   1.081       .  S
C291        C292   1.398       .  A
C292        H296   1.084       .  S
C297        C298   1.406       .  A
C297        C718   1.393   1_554  A
C297        H303   1.081       .  S
C298        C299   1.407       .  A
C299        C716   1.406   1_554  A
C299        H304   1.084       .  S
C300        C301   1.406       .  A
C300        C715   1.406       .  A
C300        H305   1.081       .  S
C301        C302   1.404       .  A
C302        C713   1.393       .  A
C302        H306   1.084       .  S
C307        C308   1.411       .  A
C307        C312   1.399       .  A
C307        H313   1.083       .  S
C308        C309   1.398       .  A
C309        C310   1.400       .  A
C309        H314   1.084       .  S
C310        C311   1.411       .  A
C310        H315   1.082       .  S
C311        C312   1.398       .  A
C312        H316   1.083       .  S
C317        C318   1.397       .  A
C317        C322   1.399       .  A
C317        H323   1.085       .  S
C318        C319   1.417       .  A
C319        C320   1.398       .  A
C319        H324   1.081       .  S
C320        C321   1.397       .  A
C320        H325   1.085       .  S
C321        C322   1.417       .  A
C322        H326   1.081       .  S
C327        C328   1.402       .  A
C327       C1164   1.392       .  A
C327        H333   1.083       .  S
C328        C329   1.404       .  A
C329       C1162   1.390       .  A
C329        H334   1.083       .  S
C330        C331   1.402       .  A
C330       C1161   1.390   1_455  A
C330        H335   1.083       .  S
C331        C332   1.406       .  A
C332       C1159   1.392   1_455  A
C332        H336   1.082       .  S
C337        C338   1.405       .  A
C337        C342   1.408       .  A
C337        H343   1.083       .  S
C338        C339   1.405       .  A
C339        C340   1.395       .  A
C339        H344   1.083       .  S
C340        C341   1.404       .  A
C340        H345   1.083       .  S
C341        C342   1.410       .  A
C342        H346   1.083       .  S
C347        C348   1.411       .  A
C347        C352   1.408       .  A
C347        H353   1.083       .  S
C348        C857   1.482   1_455  S
C348        C349   1.403       .  A
C349        C350   1.395       .  A
C349       H1186   1.083   1_455  S
C350        C351   1.405       .  A
C350        H355   1.083       .  S
C351        C352   1.405       .  A
C352        H356   1.083       .  S
H354       C1181   1.084       .  S
C357        C358   1.413       .  A
C357        C362   1.400       .  A
C357        H363   1.082       .  S
C358        C359   1.400       .  A
C359        C360   1.402       .  A
C359        H364   1.084       .  S
C360        C361   1.414       .  A
C360        H365   1.082       .  S
C361        C362   1.399       .  A
C362        H366   1.085       .  S
C367        C368   1.401       .  A
C367        C372   1.392       .  A
C367        H373   1.082       .  S
C368        C369   1.406       .  A
C369        C370   1.389       .  A
C369        H374   1.083       .  S
C370        C371   1.400       .  A
C370        H375   1.083       .  S
C371        C372   1.406       .  A
C372        H376   1.084       .  S
C377        C378   1.411       .  A
C377        C382   1.398       .  A
C377        H383   1.081       .  S
C378        C379   1.396       .  A
C379        C380   1.397       .  A
C379        H384   1.084       .  S
C380        C381   1.411       .  A
C380        H385   1.080       .  S
C381        C382   1.396       .  A
C382        H386   1.083       .  S
C387        C388   1.403       .  A
C387        C808   1.394       .  A
C387        H393   1.084       .  S
C388        C389   1.407       .  A
C389        C806   1.407       .  A
C389        H394   1.083       .  S
C390        C391   1.407       .  A
C390        C805   1.407   1_554  A
C390        H395   1.083       .  S
C391        C392   1.407       .  A
C392        C803   1.393   1_554  A
C392        H396   1.083       .  S
C397        C398   1.404       .  A
C397        C402   1.406       .  A
C397        H403   1.083       .  S
C398        C399   1.405       .  A
C399        C400   1.394       .  A
C399        H404   1.083       .  S
C400        C401   1.404       .  A
C400       H1237   1.083       .  S
C401        C904   1.480       .  S
C401        C402   1.409       .  A
C402        H406   1.083       .  S
H405       C1232   1.083   1_455  S
C407        C408   1.404       .  A
C407        C412   1.393       .  A
C407        H413   1.083       .  S
C408        C409   1.410       .  A
C409        C410   1.407       .  A
C409        H414   1.083       .  S
C410        C411   1.404       .  A
C410        H415   1.083       .  S
C411        C412   1.405       .  A
C412        H416   1.083       .  S
O417       Cr435   2.010       .  S
O417        C425   1.273       .  A
O418       Cr435   1.963       .  S
O418        C419   1.259       .  A
C419        O420   1.267       .  A
C419        C824   1.482       .  S
O420       Cr436   2.014       .  S
O421       Cr436   2.005       .  S
O421        C422   1.266       .  A
C422        O423   1.255       .  A
C422        C774   1.485       .  S
O423       Cr437   1.975       .  S
O424       Cr437   1.994       .  S
O424        C425   1.271       .  A
C425        C804   1.481       .  S
O426       Cr435   2.001       .  S
O426        C434   1.255       .  A
O427       Cr435   1.992       .  S
O427        C428   1.263       .  A
C428        O429   1.254       .  A
C428        C784   1.467       .  S
O429       Cr436   1.949       .  S
O430       Cr436   1.990       .  S
O430        C431   1.268       .  A
C431        O432   1.275       .  A
C431        C794   1.471       .  S
O432       Cr437   2.000       .  S
O433       Cr437   1.996       .  S
O433        C434   1.256       .  A
C434        C814   1.480       .  S
Cr435       O438   1.769       .  S
Cr436       O438   1.779       .  S
Cr437       O438   1.768       .  S
O439       Cr457   2.001       .  S
O439        C447   1.271       .  A
O440       Cr457   1.969       .  S
O440        C441   1.260       .  A
C441        O442   1.267       .  A
C441       C1596   1.482       .  S
O442       Cr458   2.013       .  S
O443       Cr458   2.009       .  S
O443        C444   1.268       .  A
C444        O445   1.254       .  A
C444        C734   1.484       .  S
O445       Cr459   1.969       .  S
O446       Cr459   2.002       .  S
O446        C447   1.272       .  A
C447        C807   1.486       .  S
O448       Cr457   2.007       .  S
O448        C456   1.257       .  A
O449       Cr457   1.983       .  S
O449        C450   1.261       .  A
C450        O451   1.256       .  A
C450        C744   1.466       .  S
O451       Cr458   1.959       .  S
O452       Cr458   1.988       .  S
O452        C453   1.267       .  A
C453        O454   1.275       .  A
C453        C797   1.472       .  S
O454       Cr459   2.005       .  S
O455       Cr459   1.996       .  S
O455        C456   1.257       .  A
C456        C754   1.483       .  S
Cr457       O460   1.767       .  S
Cr458       O460   1.779       .  S
Cr459       O460   1.768       .  S
O461       Cr479   1.998       .  S
O461        C469   1.272       .  A
O462       Cr479   1.972       .  S
O462        C463   1.254       .  A
C463        O464   1.267       .  A
C463        C704   1.486       .  S
O464       Cr480   2.008       .  S
O465       Cr480   2.017       .  S
O465        C466   1.267       .  A
C466        O467   1.259       .  A
C466        C757   1.484       .  S
O467       Cr481   1.967       .  S
O468       Cr481   2.003       .  S
O468        C469   1.271       .  A
C469        C714   1.484       .  S
O470       Cr479   1.993       .  S
O470        C478   1.256       .  A
O471       Cr479   2.005       .  S
O471        C472   1.276       .  A
C472        O473   1.270       .  A
C472        C724   1.477       .  S
O473       Cr480   1.997       .  S
O474       Cr480   1.952       .  S
O474        C475   1.255       .  A
C475        O476   1.263       .  A
C475        C787   1.465       .  S
O476       Cr481   1.986       .  S
O477       Cr481   2.008       .  S
O477        C478   1.257       .  A
C478        C767   1.481       .  S
Cr479       O482   1.768       .  S
Cr480       O482   1.778       .  S
Cr481       O482   1.768       .  S
O483       Cr501   1.999       .  S
O483        C491   1.273       .  A
O484       Cr501   1.968       .  S
O484        C485   1.252       .  A
C485        O486   1.266       .  A
C485        C694   1.483       .  S
O486       Cr502   2.007       .  S
O487       Cr502   2.013       .  S
O487        C488   1.267       .  A
C488        O489   1.259       .  A
C488       C1649   1.481   1_455  S
O489       Cr503   1.964       .  S
O490       Cr503   2.004       .  S
O490        C491   1.272       .  A
C491        C717   1.480       .  S
O492       Cr501   1.993       .  S
O492        C500   1.255       .  A
O493       Cr501   2.005       .  S
O493        C494   1.277       .  A
C494        O495   1.270       .  A
C494        C727   1.477       .  S
O495       Cr502   1.995       .  S
O496       Cr502   1.957       .  S
O496        C497   1.256       .  A
C497        O498   1.261       .  A
C497        C747   1.467       .  S
O498       Cr503   1.983       .  S
O499       Cr503   2.001       .  S
O499        C500   1.255       .  A
C500        C827   1.479       .  S
Cr501       O504   1.768       .  S
Cr502       O504   1.779       .  S
Cr503       O504   1.768       .  S
O505       Cr523   1.999       .  S
O505        C513   1.271       .  A
O506       Cr523   1.970       .  S
O506        C507   1.254       .  A
C507        O508   1.268       .  A
C507        C737   1.484       .  S
O508       Cr524   2.006       .  S
O509       Cr524   2.018       .  S
O509        C510   1.267       .  A
C510        O511   1.258       .  A
C510        C684   1.484       .  S
O511       Cr525   1.965       .  S
O512       Cr525   2.005       .  S
O512        C513   1.271       .  A
C513        C664   1.481       .  S
O514       Cr523   1.994       .  S
O514        C522   1.257       .  A
O515       Cr523   2.005       .  S
O515        C516   1.275       .  A
C516        O517   1.267       .  A
C516        C654   1.473       .  S
O517       Cr524   1.990       .  S
O518       Cr524   1.953       .  S
O518        C519   1.255       .  A
C519        O520   1.264       .  A
C519        C644   1.470       .  S
O520       Cr525   1.996       .  S
O521       Cr525   2.007       .  S
O521        C522   1.258       .  A
C522        C674   1.482   1_565  S
Cr523       O526   1.766       .  S
Cr524       O526   1.777       .  S
Cr525       O526   1.767       .  S
O527       Cr545   2.001       .  S
O527        C535   1.272       .  A
O528       Cr545   1.976       .  S
O528        C529   1.255       .  A
C529        O530   1.267       .  A
C529        C777   1.484       .  S
O530       Cr546   2.005       .  S
O531       Cr546   2.013       .  S
O531        C532   1.267       .  A
C532        O533   1.259       .  A
C532       C1466   1.482       .  S
O533       Cr547   1.969       .  S
O534       Cr547   2.002       .  S
O534        C535   1.271       .  A
C535        C667   1.485       .  S
O536       Cr545   1.996       .  S
O536        C544   1.257       .  A
O537       Cr545   2.005       .  S
O537        C538   1.275       .  A
C538        O539   1.268       .  A
C538        C657   1.474       .  S
O539       Cr546   1.991       .  S
O540       Cr546   1.957       .  S
O540        C541   1.255       .  A
C541        O542   1.263       .  A
C541        C614   1.470       .  S
O542       Cr547   1.990       .  S
O543       Cr547   2.008       .  S
O543        C544   1.258       .  A
C544        C624   1.483   1_565  S
Cr545       O548   1.769       .  S
Cr546       O548   1.778       .  S
Cr547       O548   1.769       .  S
O549       Cr567   2.004       .  S
O549        C557   1.272       .  A
O550       Cr567   1.972       .  S
O550        C551   1.261       .  A
C551        O552   1.266       .  A
C551       C1509   1.483   1_455  S
O552       Cr568   2.011       .  S
O553       Cr568   2.008       .  S
O553        C554   1.267       .  A
C554        O555   1.254       .  A
C554        C707   1.487       .  S
O555       Cr569   1.972       .  S
O556       Cr569   2.000       .  S
O556        C557   1.272       .  A
C557        C594   1.482       .  S
O558       Cr567   2.005       .  S
O558        C566   1.257       .  A
O559       Cr567   1.989       .  S
O559        C560   1.262       .  A
C560        O561   1.255       .  A
C560        C617   1.469       .  S
O561       Cr568   1.955       .  S
O562       Cr568   1.987       .  S
O562        C563   1.266       .  A
C563        O564   1.276       .  A
C563        C607   1.472       .  S
O564       Cr569   2.006       .  S
O565       Cr569   1.997       .  S
O565        C566   1.256       .  A
C566        C687   1.483   1_545  S
Cr567       O570   1.770       .  S
Cr568       O570   1.779       .  S
Cr569       O570   1.769       .  S
O571       Cr589   2.006       .  S
O571        C579   1.272       .  A
O572       Cr589   1.967       .  S
O572        C573   1.258       .  A
C573        O574   1.267       .  A
C573        C627   1.483       .  S
O574       Cr590   2.016       .  S
O575       Cr590   2.006       .  S
O575        C576   1.267       .  A
C576        O577   1.255       .  A
C576        C697   1.483       .  S
O577       Cr591   1.971       .  S
O578       Cr591   1.997       .  S
O578        C579   1.271       .  A
C579        C597   1.484       .  S
O580       Cr589   2.003       .  S
O580        C588   1.257       .  A
O581       Cr589   1.992       .  S
O581        C582   1.264       .  A
C582        O583   1.255       .  A
C582        C647   1.470       .  S
O583       Cr590   1.956       .  S
O584       Cr590   1.991       .  S
O584        C585   1.267       .  A
C585        O586   1.275       .  A
C585        C604   1.473       .  S
O586       Cr591   2.005       .  S
O587       Cr591   1.996       .  S
O587        C588   1.257       .  A
C588        C637   1.481   1_545  S
Cr589       O592   1.767       .  S
Cr590       O592   1.777       .  S
Cr591       O592   1.769       .  S
C593        C594   1.407       .  A
C593        C598   1.407       .  A
C593        H599   1.083       .  S
C594        C595   1.404       .  A
C595        C596   1.392       .  A
C595        H600   1.083       .  S
C596        C597   1.405       .  A
C596        H601   1.083       .  S
C597        C598   1.408       .  A
C598        H602   1.083       .  S
C603        C608   1.397       .  A
C604        C605   1.396       .  A
C605        H610   1.084       .  S
C606        C607   1.411       .  A
C606        H611   1.079       .  S
C607        C608   1.395       .  A
C608        H612   1.083       .  S
C613        C614   1.401   1_545  A
C613        H619   1.083       .  S
C614       C1447   1.406   1_556  A
C615       C1446   1.406   1_554  A
C615        H620   1.082       .  S
C616        C617   1.402   1_565  A
C616        H621   1.083       .  S
C617       C1450   1.406       .  A
C618       C1449   1.406       .  A
C618        H622   1.082       .  S
C623        C624   1.405       .  A
C623        C628   1.408       .  A
C623        H629   1.083       .  S
C624        C625   1.405       .  A
C625        C626   1.395       .  A
C625        H630   1.083       .  S
C626        C627   1.404       .  A
C626        H631   1.083       .  S
C627        C628   1.410       .  A
C628        H632   1.083       .  S
C633        C634   1.410       .  A
C633        C638   1.407       .  A
C633        H639   1.083       .  S
C634       C1364   1.482   1_455  S
C634        C635   1.404       .  A
C635        C636   1.394       .  A
C635       H1472   1.083   1_455  S
C636        C637   1.405       .  A
C636        H641   1.083       .  S
C637        C638   1.405       .  A
C638        H642   1.083       .  S
H640       C1467   1.083       .  S
C643        C644   1.401   1_545  A
C643        H649   1.083       .  S
C644        C645   1.407       .  A
C645        H650   1.082       .  S
C646        C647   1.401   1_565  A
C646        H651   1.083       .  S
C647        C648   1.407   1_556  A
C648        H652   1.081       .  S
C653        C654   1.411       .  A
C653        H659   1.083       .  S
C654        C655   1.397       .  A
C655        C656   1.398       .  A
C655        H660   1.083       .  S
C656        H661   1.083       .  S
C657        C658   1.397       .  A
C658        H662   1.083       .  S
C663        C664   1.408       .  A
C663        C668   1.408       .  A
C663        H669   1.082       .  S
C664        C665   1.403       .  A
C665        C666   1.392       .  A
C665        H670   1.083       .  S
C666        C667   1.406       .  A
C666        H671   1.083       .  S
C667        C668   1.408       .  A
C668        H672   1.083       .  S
C673        C674   1.406       .  A
C673        C678   1.395       .  A
C673        H679   1.083       .  S
C674        C675   1.404       .  A
C675        C676   1.407       .  A
C675        H680   1.083       .  S
C676        C677   1.411       .  A
C676        H681   1.083       .  S
C677       C1383   1.483       .  S
C677        C678   1.403       .  A
C678       H1514   1.083       .  S
H682       C1510   1.083   1_455  S
C683        C684   1.405       .  A
C683        C688   1.394       .  A
C683        H689   1.083       .  S
C684        C685   1.410       .  A
C685        C686   1.408       .  A
C685        H690   1.083       .  S
C686        C687   1.406       .  A
C686        H691   1.083       .  S
C687        C688   1.405       .  A
C688        H692   1.083       .  S
C693        C694   1.415       .  A
C693        C698   1.399       .  A
C693        H699   1.081       .  S
C694        C695   1.398       .  A
C695        C696   1.399       .  A
C695        H700   1.085       .  S
C696        C697   1.415       .  A
C696        H701   1.081       .  S
C697        C698   1.398       .  A
C698        H702   1.085       .  S
C703        C704   1.417       .  A
C703        C708   1.401       .  A
C703        H709   1.081       .  S
C704        C705   1.396       .  A
C705        C706   1.398       .  A
C705        H710   1.085       .  S
C706        C707   1.416       .  A
C706        H711   1.081       .  S
C707        C708   1.398       .  A
C708        H712   1.084       .  S
C713        C714   1.406       .  A
C713        H719   1.081       .  S
C714        C715   1.407       .  A
C715        H720   1.084       .  S
C716        C717   1.406       .  A
C716        H721   1.081       .  S
C717        C718   1.404       .  A
C718        H722   1.084       .  S
C723        C724   1.411       .  A
C723        C728   1.400       .  A
C723        H729   1.082       .  S
C724        C725   1.398       .  A
C725        C726   1.399       .  A
C725        H730   1.084       .  S
C726        C727   1.411       .  A
C726        H731   1.082       .  S
C727        C728   1.398       .  A
C728        H732   1.083       .  S
C733        C734   1.397       .  A
C733        C738   1.399       .  A
C733        H739   1.085       .  S
C734        C735   1.417       .  A
C735        C736   1.398       .  A
C735        H740   1.081       .  S
C736        C737   1.396       .  A
C736        H741   1.085       .  S
C737        C738   1.416       .  A
C738        H742   1.081       .  S
C743        C744   1.402       .  A
C743       C1580   1.391       .  A
C743        H749   1.083       .  S
C744        C745   1.404       .  A
C745       C1578   1.391       .  A
C745        H750   1.083       .  S
C746       C1577   1.391   1_455  A
C746        C747   1.402       .  A
C746        H751   1.083       .  S
C747        C748   1.405       .  A
C748       C1575   1.391   1_455  A
C748        H752   1.082       .  S
C753        C754   1.405       .  A
C753        C758   1.408       .  A
C753        H759   1.083       .  S
C754        C755   1.405       .  A
C755        C756   1.395       .  A
C755        H760   1.083       .  S
C756        C757   1.404       .  A
C756        H761   1.083       .  S
C757        C758   1.410       .  A
C758        H762   1.083       .  S
C763        C764   1.410       .  A
C763        C768   1.408       .  A
C763        H769   1.083       .  S
C764       C1273   1.482   1_455  S
C764        C765   1.403       .  A
C765        C766   1.395       .  A
C765       H1602   1.083   1_455  S
C766        C767   1.405       .  A
C766        H771   1.083       .  S
C767        C768   1.405       .  A
C768        H772   1.083       .  S
H770       C1597   1.083       .  S
C773        C774   1.413       .  A
C773        C778   1.400       .  A
C773        H779   1.082       .  S
C774        C775   1.400       .  A
C775        C776   1.401       .  A
C775        H780   1.084       .  S
C776        C777   1.414       .  A
C776        H781   1.082       .  S
C777        C778   1.399       .  A
C778        H782   1.085       .  S
C783        C784   1.401       .  A
C783        C788   1.392       .  A
C783        H789   1.082       .  S
C784        C785   1.406       .  A
C785        C786   1.388       .  A
C785        H790   1.083       .  S
C786        C787   1.400       .  A
C786        H791   1.083       .  S
C787        C788   1.406       .  A
C788        H792   1.083       .  S
C793        C794   1.410       .  A
C793        C798   1.397       .  A
C793        H799   1.080       .  S
C794        C795   1.396       .  A
C795        C796   1.397       .  A
C795        H800   1.084       .  S
C796        C797   1.411       .  A
C796        H801   1.081       .  S
C797        C798   1.397       .  A
C798        H802   1.083       .  S
C803        C804   1.403       .  A
C803        H809   1.084       .  S
C804        C805   1.407       .  A
C805        H810   1.083       .  S
C806        C807   1.407       .  A
C806        H811   1.083       .  S
C807        C808   1.407       .  A
C808        H812   1.083       .  S
C813        C814   1.405       .  A
C813        C818   1.406       .  A
C813        H819   1.083       .  S
C814        C815   1.405       .  A
C815        C816   1.394       .  A
C815        H820   1.083       .  S
C816        C817   1.404       .  A
C816       H1653   1.083       .  S
C817       C1320   1.481       .  S
C817        C818   1.409       .  A
C818        H822   1.083       .  S
H821       C1648   1.083   1_455  S
C823        C824   1.404       .  A
C823        C828   1.393       .  A
C823        H829   1.083       .  S
C824        C825   1.409       .  A
C825        C826   1.406       .  A
C825        H830   1.083       .  S
C826        C827   1.404       .  A
C826        H831   1.083       .  S
C827        C828   1.405       .  A
C828        H832   1.083       .  S
O833       Cr851   2.011       .  S
O833        C841   1.274       .  A
O834       Cr851   1.964       .  S
O834        C835   1.259       .  A
C835        O836   1.267       .  A
C835       C1240   1.482       .  S
O836       Cr852   2.013       .  S
O837       Cr852   2.005       .  S
O837        C838   1.266       .  A
C838        O839   1.255       .  A
C838       C1190   1.485       .  S
O839       Cr853   1.976       .  S
O840       Cr853   1.995       .  S
O840        C841   1.272       .  A
C841       C1220   1.481       .  S
O842       Cr851   2.002       .  S
O842        C850   1.255       .  A
O843       Cr851   1.993       .  S
O843        C844   1.263       .  A
C844        O845   1.254       .  A
C844       C1200   1.469       .  S
O845       Cr852   1.950       .  S
O846       Cr852   1.990       .  S
O846        C847   1.268       .  A
C847        O848   1.275       .  A
C847       C1210   1.472       .  S
O848       Cr853   2.002       .  S
O849       Cr853   1.995       .  S
O849        C850   1.256       .  A
C850       C1230   1.480       .  S
Cr851       O854   1.770       .  S
Cr852       O854   1.779       .  S
Cr853       O854   1.768       .  S
O855       Cr873   2.001       .  S
O855        C863   1.271       .  A
O856       Cr873   1.970       .  S
O856        C857   1.260       .  A
C857        O858   1.267       .  A
O858       Cr874   2.013       .  S
O859       Cr874   2.010       .  S
O859        C860   1.268       .  A
C860        O861   1.254       .  A
C860       C1150   1.485       .  S
O861       Cr875   1.969       .  S
O862       Cr875   2.002       .  S
O862        C863   1.272       .  A
C863       C1223   1.486       .  S
O864       Cr873   2.006       .  S
O864        C872   1.257       .  A
O865       Cr873   1.984       .  S
O865        C866   1.261       .  A
C866        O867   1.256       .  A
C866       C1160   1.467       .  S
O867       Cr874   1.958       .  S
O868       Cr874   1.989       .  S
O868        C869   1.267       .  A
C869        O870   1.276       .  A
C869       C1213   1.472       .  S
O870       Cr875   2.005       .  S
O871       Cr875   1.996       .  S
O871        C872   1.256       .  A
C872       C1170   1.483       .  S
Cr873       O876   1.768       .  S
Cr874       O876   1.778       .  S
Cr875       O876   1.768       .  S
O877       Cr895   1.998       .  S
O877        C885   1.271       .  A
O878       Cr895   1.974       .  S
O878        C879   1.255       .  A
C879        O880   1.268       .  A
C879       C1120   1.486       .  S
O880       Cr896   2.009       .  S
O881       Cr896   2.019       .  S
O881        C882   1.268       .  A
C882        O883   1.258       .  A
C882       C1173   1.484       .  S
O883       Cr897   1.967       .  S
O884       Cr897   2.002       .  S
O884        C885   1.271       .  A
C885       C1130   1.483       .  S
O886       Cr895   1.994       .  S
O886        C894   1.256       .  A
O887       Cr895   2.005       .  S
O887        C888   1.275       .  A
C888        O889   1.269       .  A
C888       C1140   1.477       .  S
O889       Cr896   1.996       .  S
O890       Cr896   1.952       .  S
O890        C891   1.255       .  A
C891        O892   1.263       .  A
C891       C1203   1.467       .  S
O892       Cr897   1.990       .  S
O893       Cr897   2.007       .  S
O893        C894   1.258       .  A
C894       C1183   1.481       .  S
Cr895       O898   1.767       .  S
Cr896       O898   1.777       .  S
Cr897       O898   1.768       .  S
O899       Cr917   2.000       .  S
O899        C907   1.273       .  A
O900       Cr917   1.967       .  S
O900        C901   1.252       .  A
C901        O902   1.265       .  A
C901       C1110   1.482       .  S
O902       Cr918   2.006       .  S
O903       Cr918   2.011       .  S
O903        C904   1.267       .  A
C904        O905   1.259       .  A
O905       Cr919   1.964       .  S
O906       Cr919   2.004       .  S
O906        C907   1.272       .  A
C907       C1133   1.481       .  S
O908       Cr917   1.992       .  S
O908        C916   1.255       .  A
O909       Cr917   2.005       .  S
O909        C910   1.277       .  A
C910        O911   1.270       .  A
C910       C1143   1.476       .  S
O911       Cr918   1.995       .  S
O912       Cr918   1.956       .  S
O912        C913   1.255       .  A
C913        O914   1.262       .  A
C913       C1163   1.467       .  S
O914       Cr919   1.984       .  S
O915       Cr919   2.003       .  S
O915        C916   1.256       .  A
C916       C1243   1.480       .  S
Cr917       O920   1.768       .  S
Cr918       O920   1.780       .  S
Cr919       O920   1.768       .  S
O921       Cr939   2.000       .  S
O921        C929   1.271       .  A
O922       Cr939   1.971       .  S
O922        C923   1.255       .  A
C923        O924   1.268       .  A
C923       C1153   1.485       .  S
O924       Cr940   2.006       .  S
O925       Cr940   2.019       .  S
O925        C926   1.267       .  A
C926        O927   1.258       .  A
C926       C1100   1.485       .  S
O927       Cr941   1.966       .  S
O928       Cr941   2.006       .  S
O928        C929   1.271       .  A
C929       C1080   1.482       .  S
O930       Cr939   1.995       .  S
O930        C938   1.257       .  A
O931       Cr939   2.007       .  S
O931        C932   1.276       .  A
C932        O933   1.267       .  A
C932       C1070   1.475       .  S
O933       Cr940   1.990       .  S
O934       Cr940   1.952       .  S
O934        C935   1.255       .  A
C935        O936   1.265       .  A
C935       C1060   1.470       .  S
O936       Cr941   1.998       .  S
O937       Cr941   2.008       .  S
O937        C938   1.259       .  A
C938       C1090   1.483   1_565  S
Cr939       O942   1.765       .  S
Cr940       O942   1.778       .  S
Cr941       O942   1.768       .  S
O943       Cr961   2.000       .  S
O943        C951   1.272       .  A
O944       Cr961   1.976       .  S
O944        C945   1.254       .  A
C945        O946   1.266       .  A
C945       C1193   1.484       .  S
O946       Cr962   2.005       .  S
O947       Cr962   2.012       .  S
O947        C948   1.267       .  A
C948        O949   1.260       .  A
O949       Cr963   1.968       .  S
O950       Cr963   2.003       .  S
O950        C951   1.271       .  A
C951       C1083   1.485       .  S
O952       Cr961   1.997       .  S
O952        C960   1.256       .  A
O953       Cr961   2.004       .  S
O953        C954   1.276       .  A
C954        O955   1.268       .  A
C954       C1073   1.473       .  S
O955       Cr962   1.991       .  S
O956       Cr962   1.958       .  S
O956        C957   1.256       .  A
C957        O958   1.262       .  A
C957       C1030   1.470       .  S
O958       Cr963   1.987       .  S
O959       Cr963   2.007       .  S
O959        C960   1.257       .  A
C960       C1040   1.482   1_565  S
Cr961       O964   1.770       .  S
Cr962       O964   1.778       .  S
Cr963       O964   1.769       .  S
O965       Cr983   2.005       .  S
O965        C973   1.272       .  A
O966       Cr983   1.971       .  S
O966        C967   1.260       .  A
C967        O968   1.267       .  A
O968       Cr984   2.013       .  S
O969       Cr984   2.008       .  S
O969        C970   1.267       .  A
C970        O971   1.254       .  A
C970       C1123   1.487       .  S
O971       Cr985   1.973       .  S
O972       Cr985   2.001       .  S
O972        C973   1.273       .  A
C973       C1010   1.483       .  S
O974       Cr983   2.006       .  S
O974        C982   1.256       .  A
O975       Cr983   1.989       .  S
O975        C976   1.262       .  A
C976        O977   1.255       .  A
C976       C1033   1.470       .  S
O977       Cr984   1.955       .  S
O978       Cr984   1.989       .  S
O978        C979   1.267       .  A
C979        O980   1.276       .  A
C979       C1023   1.474       .  S
O980       Cr985   2.007       .  S
O981       Cr985   1.997       .  S
O981        C982   1.256       .  A
C982       C1103   1.484   1_545  S
Cr983       O986   1.770       .  S
Cr984       O986   1.779       .  S
Cr985       O986   1.769       .  S
O987      Cr1005   2.005       .  S
O987        C995   1.272       .  A
O988      Cr1005   1.967       .  S
O988        C989   1.258       .  A
C989        O990   1.266       .  A
C989       C1043   1.482       .  S
O990      Cr1006   2.014       .  S
O991      Cr1006   2.006       .  S
O991        C992   1.267       .  A
C992        O993   1.255       .  A
C992       C1113   1.482       .  S
O993      Cr1007   1.969       .  S
O994      Cr1007   1.998       .  S
O994        C995   1.271       .  A
C995       C1013   1.485       .  S
O996      Cr1005   2.004       .  S
O996       C1004   1.257       .  A
O997      Cr1005   1.993       .  S
O997        C998   1.264       .  A
C998        O999   1.255       .  A
C998       C1063   1.470       .  S
O999      Cr1006   1.956       .  S
O1000     Cr1006   1.989       .  S
O1000      C1001   1.267       .  A
C1001      O1002   1.275       .  A
C1001      C1020   1.472       .  S
O1002     Cr1007   2.005       .  S
O1003     Cr1007   1.995       .  S
O1003      C1004   1.257       .  A
C1004      C1053   1.482   1_545  S
Cr1005     O1008   1.766       .  S
Cr1006     O1008   1.777       .  S
Cr1007     O1008   1.768       .  S
C1009      C1010   1.407       .  A
C1009      C1014   1.408       .  A
C1009      H1015   1.083       .  S
C1010      C1011   1.404       .  A
C1011      C1012   1.392       .  A
C1011      H1016   1.083       .  S
C1012      C1013   1.405       .  A
C1012      H1017   1.083       .  S
C1013      C1014   1.409       .  A
C1014      H1018   1.083       .  S
C1019      C1436   1.411       .  A
C1019      C1024   1.398   1_556  A
C1019      H1441   1.078       .  S
C1020      C1435   1.411       .  A
C1020      C1021   1.396       .  A
C1021      C1438   1.397       .  A
C1021      H1026   1.084       .  S
C1022      C1437   1.398   1_554  A
C1022      C1023   1.412       .  A
C1022      H1027   1.079       .  S
C1023      C1024   1.396       .  A
C1024      H1028   1.083       .  S
H1025      C1435   1.078       .  S
C1029      C1030   1.401   1_545  A
C1029      C1450   1.390   1_655  A
C1029      H1035   1.083       .  S
C1031      C1448   1.393       .  A
C1031      H1036   1.082       .  S
C1032      C1447   1.392       .  A
C1032      C1033   1.402   1_565  A
C1032      H1037   1.083       .  S
C1034      C1445   1.391   1_454  A
C1034      H1038   1.081       .  S
C1039      C1040   1.405       .  A
C1039      C1044   1.407       .  A
C1039      H1045   1.083       .  S
C1040      C1041   1.405       .  A
C1041      C1042   1.395       .  A
C1041      H1046   1.083       .  S
C1042      C1043   1.403       .  A
C1042      H1047   1.083       .  S
C1043      C1044   1.410       .  A
C1044      H1048   1.083       .  S
C1049      C1050   1.410       .  A
C1049      C1054   1.407       .  A
C1049      H1055   1.083       .  S
C1050      C1051   1.403       .  A
C1051      C1052   1.394       .  A
C1052      C1053   1.405       .  A
C1052      H1057   1.083       .  S
C1053      C1054   1.405       .  A
C1054      H1058   1.083       .  S
C1059      C1060   1.401   1_545  A
C1059      C1480   1.392       .  A
C1059      H1065   1.083       .  S
C1060      C1061   1.407       .  A
C1061      C1478   1.391   1_554  A
C1061      H1066   1.082       .  S
C1062      C1477   1.391       .  A
C1062      C1063   1.401   1_565  A
C1062      H1067   1.083       .  S
C1063      C1064   1.407       .  A
C1064      C1475   1.392       .  A
C1064      H1068   1.080       .  S
C1069      C1070   1.411       .  A
C1069      C1490   1.398   1_554  A
C1069      H1075   1.083       .  S
C1070      C1071   1.397       .  A
C1071      C1072   1.398   1_554  A
C1071      H1076   1.083       .  S
C1072      C1489   1.410       .  A
C1072      H1077   1.082       .  S
C1073      C1488   1.410       .  A
C1073      C1074   1.396       .  A
C1074      C1485   1.397       .  A
C1074      H1078   1.083       .  S
C1079      C1080   1.408       .  A
C1079      C1084   1.408       .  A
C1079      H1085   1.082       .  S
C1080      C1081   1.403       .  A
C1081      C1082   1.393       .  A
C1081      H1086   1.083       .  S
C1082      C1083   1.406       .  A
C1082      H1087   1.083       .  S
C1083      C1084   1.408       .  A
C1084      H1088   1.083       .  S
C1089      C1090   1.406       .  A
C1089      C1094   1.395       .  A
C1089      H1095   1.083       .  S
C1090      C1091   1.405       .  A
C1091      C1092   1.408       .  A
C1091      H1096   1.083       .  S
C1092      C1093   1.411       .  A
C1092      H1097   1.083       .  S
C1093      C1094   1.403       .  A
C1099      C1100   1.405       .  A
C1099      C1104   1.394       .  A
C1099      H1105   1.083       .  S
C1100      C1101   1.410       .  A
C1101      C1102   1.408       .  A
C1101      H1106   1.083       .  S
C1102      C1103   1.406       .  A
C1102      H1107   1.083       .  S
C1103      C1104   1.405       .  A
C1104      H1108   1.083       .  S
C1109      C1110   1.416       .  A
C1109      C1114   1.399       .  A
C1109      H1115   1.081       .  S
C1110      C1111   1.397       .  A
C1111      C1112   1.397       .  A
C1111      H1116   1.085       .  S
C1112      C1113   1.415       .  A
C1112      H1117   1.081       .  S
C1113      C1114   1.397       .  A
C1114      H1118   1.085       .  S
C1119      C1120   1.416       .  A
C1119      C1124   1.401       .  A
C1119      H1125   1.081       .  S
C1120      C1121   1.397       .  A
C1121      C1122   1.399       .  A
C1121      H1126   1.084       .  S
C1122      C1123   1.416       .  A
C1122      H1127   1.081       .  S
C1123      C1124   1.398       .  A
C1124      H1128   1.084       .  S
C1129      C1130   1.406       .  A
C1129      C1550   1.393   1_554  A
C1129      H1135   1.081       .  S
C1130      C1131   1.407       .  A
C1131      C1548   1.406   1_554  A
C1131      H1136   1.084       .  S
C1132      C1547   1.406       .  A
C1132      C1133   1.406       .  A
C1132      H1137   1.081       .  S
C1133      C1134   1.404       .  A
C1134      C1545   1.393       .  A
C1134      H1138   1.084       .  S
C1139      C1140   1.411       .  A
C1139      C1144   1.399       .  A
C1139      H1145   1.083       .  S
C1140      C1141   1.398       .  A
C1141      C1142   1.400       .  A
C1141      H1146   1.084       .  S
C1142      C1143   1.411       .  A
C1142      H1147   1.082       .  S
C1143      C1144   1.398       .  A
C1144      H1148   1.083       .  S
C1149      C1150   1.397       .  A
C1149      C1154   1.399       .  A
C1149      H1155   1.085       .  S
C1150      C1151   1.417       .  A
C1151      C1152   1.398       .  A
C1151      H1156   1.081       .  S
C1152      C1153   1.397       .  A
C1152      H1157   1.085       .  S
C1153      C1154   1.417       .  A
C1154      H1158   1.081       .  S
C1159      C1160   1.402       .  A
C1159      H1165   1.083       .  S
C1160      C1161   1.404       .  A
C1161      H1166   1.083       .  S
C1162      C1163   1.402       .  A
C1162      H1167   1.083       .  S
C1163      C1164   1.406       .  A
C1164      H1168   1.083       .  S
C1169      C1170   1.405       .  A
C1169      C1174   1.408       .  A
C1169      H1175   1.083       .  S
C1170      C1171   1.405       .  A
C1171      C1172   1.395       .  A
C1171      H1176   1.083       .  S
C1172      C1173   1.404       .  A
C1172      H1177   1.083       .  S
C1173      C1174   1.410       .  A
C1174      H1178   1.083       .  S
C1179      C1180   1.411       .  A
C1179      C1184   1.408       .  A
C1179      H1185   1.083       .  S
C1180      C1181   1.403       .  A
C1181      C1182   1.395       .  A
C1182      C1183   1.405       .  A
C1182      H1187   1.083       .  S
C1183      C1184   1.405       .  A
C1184      H1188   1.083       .  S
C1189      C1190   1.413       .  A
C1189      C1194   1.400       .  A
C1189      H1195   1.082       .  S
C1190      C1191   1.400       .  A
C1191      C1192   1.402       .  A
C1191      H1196   1.084       .  S
C1192      C1193   1.414       .  A
C1192      H1197   1.082       .  S
C1193      C1194   1.399       .  A
C1194      H1198   1.085       .  S
C1199      C1200   1.401       .  A
C1199      C1204   1.392       .  A
C1199      H1205   1.082       .  S
C1200      C1201   1.406       .  A
C1201      C1202   1.389       .  A
C1201      H1206   1.083       .  S
C1202      C1203   1.400       .  A
C1202      H1207   1.083       .  S
C1203      C1204   1.406       .  A
C1204      H1208   1.084       .  S
C1209      C1210   1.411       .  A
C1209      C1214   1.398       .  A
C1209      H1215   1.081       .  S
C1210      C1211   1.396       .  A
C1211      C1212   1.397       .  A
C1211      H1216   1.084       .  S
C1212      C1213   1.411       .  A
C1212      H1217   1.080       .  S
C1213      C1214   1.396       .  A
C1214      H1218   1.083       .  S
C1219      C1220   1.403       .  A
C1219      C1640   1.394       .  A
C1219      H1225   1.084       .  S
C1220      C1221   1.407       .  A
C1221      C1638   1.407       .  A
C1221      H1226   1.083       .  S
C1222      C1637   1.407   1_554  A
C1222      C1223   1.407       .  A
C1222      H1227   1.083       .  S
C1223      C1224   1.407       .  A
C1224      C1635   1.393   1_554  A
C1224      H1228   1.083       .  S
C1229      C1230   1.404       .  A
C1229      C1234   1.406       .  A
C1229      H1235   1.083       .  S
C1230      C1231   1.405       .  A
C1231      C1232   1.394       .  A
C1231      H1236   1.083       .  S
C1232      C1233   1.404       .  A
C1233      C1234   1.409       .  A
C1234      H1238   1.083       .  S
C1239      C1240   1.404       .  A
C1239      C1244   1.393       .  A
C1239      H1245   1.083       .  S
C1240      C1241   1.410       .  A
C1241      C1242   1.407       .  A
C1241      H1246   1.083       .  S
C1242      C1243   1.404       .  A
C1242      H1247   1.083       .  S
C1243      C1244   1.405       .  A
C1244      H1248   1.083       .  S
O1249     Cr1267   2.010       .  S
O1249      C1257   1.273       .  A
O1250     Cr1267   1.963       .  S
O1250      C1251   1.259       .  A
C1251      O1252   1.267       .  A
C1251      C1656   1.482       .  S
O1252     Cr1268   2.014       .  S
O1253     Cr1268   2.005       .  S
O1253      C1254   1.266       .  A
C1254      O1255   1.255       .  A
C1254      C1606   1.484       .  S
O1255     Cr1269   1.975       .  S
O1256     Cr1269   1.994       .  S
O1256      C1257   1.271       .  A
C1257      C1636   1.481       .  S
O1258     Cr1267   2.001       .  S
O1258      C1266   1.255       .  A
O1259     Cr1267   1.992       .  S
O1259      C1260   1.263       .  A
C1260      O1261   1.254       .  A
C1260      C1616   1.467       .  S
O1261     Cr1268   1.949       .  S
O1262     Cr1268   1.991       .  S
O1262      C1263   1.268       .  A
C1263      O1264   1.275       .  A
C1263      C1626   1.471       .  S
O1264     Cr1269   2.000       .  S
O1265     Cr1269   1.996       .  S
O1265      C1266   1.256       .  A
C1266      C1646   1.480       .  S
Cr1267     O1270   1.769       .  S
Cr1268     O1270   1.779       .  S
Cr1269     O1270   1.768       .  S
O1271     Cr1289   2.001       .  S
O1271      C1279   1.271       .  A
O1272     Cr1289   1.969       .  S
O1272      C1273   1.260       .  A
C1273      O1274   1.267       .  A
O1274     Cr1290   2.013       .  S
O1275     Cr1290   2.009       .  S
O1275      C1276   1.268       .  A
C1276      O1277   1.254       .  A
C1276      C1566   1.484       .  S
O1277     Cr1291   1.968       .  S
O1278     Cr1291   2.002       .  S
O1278      C1279   1.272       .  A
C1279      C1639   1.486       .  S
O1280     Cr1289   2.007       .  S
O1280      C1288   1.257       .  A
O1281     Cr1289   1.983       .  S
O1281      C1282   1.261       .  A
C1282      O1283   1.256       .  A
C1282      C1576   1.466       .  S
O1283     Cr1290   1.959       .  S
O1284     Cr1290   1.988       .  S
O1284      C1285   1.267       .  A
C1285      O1286   1.275       .  A
C1285      C1629   1.472       .  S
O1286     Cr1291   2.004       .  S
O1287     Cr1291   1.995       .  S
O1287      C1288   1.256       .  A
C1288      C1586   1.483       .  S
Cr1289     O1292   1.767       .  S
Cr1290     O1292   1.779       .  S
Cr1291     O1292   1.768       .  S
O1293     Cr1311   1.999       .  S
O1293      C1301   1.272       .  A
O1294     Cr1311   1.972       .  S
O1294      C1295   1.253       .  A
C1295      O1296   1.267       .  A
C1295      C1536   1.485       .  S
O1296     Cr1312   2.008       .  S
O1297     Cr1312   2.017       .  S
O1297      C1298   1.267       .  A
C1298      O1299   1.259       .  A
C1298      C1589   1.484       .  S
O1299     Cr1313   1.967       .  S
O1300     Cr1313   2.003       .  S
O1300      C1301   1.271       .  A
C1301      C1546   1.484       .  S
O1302     Cr1311   1.993       .  S
O1302      C1310   1.255       .  A
O1303     Cr1311   2.005       .  S
O1303      C1304   1.276       .  A
C1304      O1305   1.270       .  A
C1304      C1556   1.477       .  S
O1305     Cr1312   1.997       .  S
O1306     Cr1312   1.952       .  S
O1306      C1307   1.255       .  A
C1307      O1308   1.263       .  A
C1307      C1619   1.465       .  S
O1308     Cr1313   1.985       .  S
O1309     Cr1313   2.007       .  S
O1309      C1310   1.257       .  A
C1310      C1599   1.481       .  S
Cr1311     O1314   1.768       .  S
Cr1312     O1314   1.778       .  S
Cr1313     O1314   1.768       .  S
O1315     Cr1333   1.999       .  S
O1315      C1323   1.273       .  A
O1316     Cr1333   1.968       .  S
O1316      C1317   1.252       .  A
C1317      O1318   1.266       .  A
C1317      C1526   1.483       .  S
O1318     Cr1334   2.007       .  S
O1319     Cr1334   2.013       .  S
O1319      C1320   1.267       .  A
C1320      O1321   1.259       .  A
O1321     Cr1335   1.964       .  S
O1322     Cr1335   2.004       .  S
O1322      C1323   1.272       .  A
C1323      C1549   1.480       .  S
O1324     Cr1333   1.993       .  S
O1324      C1332   1.255       .  A
O1325     Cr1333   2.005       .  S
O1325      C1326   1.277       .  A
C1326      O1327   1.270       .  A
C1326      C1559   1.477       .  S
O1327     Cr1334   1.995       .  S
O1328     Cr1334   1.957       .  S
O1328      C1329   1.256       .  A
C1329      O1330   1.261       .  A
C1329      C1579   1.467       .  S
O1330     Cr1335   1.983       .  S
O1331     Cr1335   2.001       .  S
O1331      C1332   1.255       .  A
C1332      C1659   1.479       .  S
Cr1333     O1336   1.768       .  S
Cr1334     O1336   1.779       .  S
Cr1335     O1336   1.768       .  S
O1337     Cr1355   1.999       .  S
O1337      C1345   1.271       .  A
O1338     Cr1355   1.970       .  S
O1338      C1339   1.254       .  A
C1339      O1340   1.268       .  A
C1339      C1569   1.483       .  S
O1340     Cr1356   2.006       .  S
O1341     Cr1356   2.018       .  S
O1341      C1342   1.267       .  A
C1342      O1343   1.258       .  A
C1342      C1516   1.484       .  S
O1343     Cr1357   1.965       .  S
O1344     Cr1357   2.005       .  S
O1344      C1345   1.271       .  A
C1345      C1496   1.481       .  S
O1346     Cr1355   1.994       .  S
O1346      C1354   1.257       .  A
O1347     Cr1355   2.005       .  S
O1347      C1348   1.276       .  A
C1348      O1349   1.267       .  A
C1348      C1486   1.473       .  S
O1349     Cr1356   1.990       .  S
O1350     Cr1356   1.953       .  S
O1350      C1351   1.255       .  A
C1351      O1352   1.264       .  A
C1351      C1476   1.469       .  S
O1352     Cr1357   1.995       .  S
O1353     Cr1357   2.007       .  S
O1353      C1354   1.258       .  A
C1354      C1506   1.482   1_565  S
Cr1355     O1358   1.766       .  S
Cr1356     O1358   1.777       .  S
Cr1357     O1358   1.767       .  S
O1359     Cr1377   2.000       .  S
O1359      C1367   1.272       .  A
O1360     Cr1377   1.976       .  S
O1360      C1361   1.255       .  A
C1361      O1362   1.266       .  A
C1361      C1609   1.484       .  S
O1362     Cr1378   2.006       .  S
O1363     Cr1378   2.013       .  S
O1363      C1364   1.267       .  A
C1364      O1365   1.259       .  A
O1365     Cr1379   1.969       .  S
O1366     Cr1379   2.002       .  S
O1366      C1367   1.271       .  A
C1367      C1499   1.484       .  S
O1368     Cr1377   1.996       .  S
O1368      C1376   1.257       .  A
O1369     Cr1377   2.005       .  S
O1369      C1370   1.275       .  A
C1370      O1371   1.268       .  A
C1370      C1489   1.474       .  S
O1371     Cr1378   1.992       .  S
O1372     Cr1378   1.956       .  S
O1372      C1373   1.255       .  A
C1373      O1374   1.263       .  A
C1373      C1446   1.470       .  S
O1374     Cr1379   1.990       .  S
O1375     Cr1379   2.008       .  S
O1375      C1376   1.258       .  A
C1376      C1456   1.483   1_565  S
Cr1377     O1380   1.769       .  S
Cr1378     O1380   1.778       .  S
Cr1379     O1380   1.769       .  S
O1381     Cr1399   2.004       .  S
O1381      C1389   1.272       .  A
O1382     Cr1399   1.972       .  S
O1382      C1383   1.260       .  A
C1383      O1384   1.266       .  A
O1384     Cr1400   2.011       .  S
O1385     Cr1400   2.008       .  S
O1385      C1386   1.267       .  A
C1386      O1387   1.254       .  A
C1386      C1539   1.487       .  S
O1387     Cr1401   1.972       .  S
O1388     Cr1401   2.000       .  S
O1388      C1389   1.272       .  A
C1389      C1426   1.482       .  S
O1390     Cr1399   2.005       .  S
O1390      C1398   1.257       .  A
O1391     Cr1399   1.989       .  S
O1391      C1392   1.262       .  A
C1392      O1393   1.255       .  A
C1392      C1449   1.470       .  S
O1393     Cr1400   1.956       .  S
O1394     Cr1400   1.987       .  S
O1394      C1395   1.266       .  A
C1395      O1396   1.276       .  A
C1395      C1439   1.472       .  S
O1396     Cr1401   2.006       .  S
O1397     Cr1401   1.997       .  S
O1397      C1398   1.256       .  A
C1398      C1519   1.483   1_545  S
Cr1399     O1402   1.770       .  S
Cr1400     O1402   1.779       .  S
Cr1401     O1402   1.769       .  S
O1403     Cr1421   2.006       .  S
O1403      C1411   1.272       .  A
O1404     Cr1421   1.967       .  S
O1404      C1405   1.258       .  A
C1405      O1406   1.267       .  A
C1405      C1459   1.483       .  S
O1406     Cr1422   2.016       .  S
O1407     Cr1422   2.007       .  S
O1407      C1408   1.267       .  A
C1408      O1409   1.255       .  A
C1408      C1529   1.483       .  S
O1409     Cr1423   1.971       .  S
O1410     Cr1423   1.997       .  S
O1410      C1411   1.271       .  A
C1411      C1429   1.484       .  S
O1412     Cr1421   2.003       .  S
O1412      C1420   1.257       .  A
O1413     Cr1421   1.992       .  S
O1413      C1414   1.264       .  A
C1414      O1415   1.255       .  A
C1414      C1479   1.470       .  S
O1415     Cr1422   1.956       .  S
O1416     Cr1422   1.990       .  S
O1416      C1417   1.267       .  A
C1417      O1418   1.275       .  A
C1417      C1436   1.473       .  S
O1418     Cr1423   2.006       .  S
O1419     Cr1423   1.996       .  S
O1419      C1420   1.257       .  A
C1420      C1469   1.481   1_545  S
Cr1421     O1424   1.767       .  S
Cr1422     O1424   1.777       .  S
Cr1423     O1424   1.768       .  S
C1425      C1426   1.407       .  A
C1425      C1430   1.407       .  A
C1425      H1431   1.083       .  S
C1426      C1427   1.404       .  A
C1427      C1428   1.392       .  A
C1427      H1432   1.083       .  S
C1428      C1429   1.405       .  A
C1428      H1433   1.083       .  S
C1429      C1430   1.408       .  A
C1430      H1434   1.083       .  S
C1435      C1440   1.397       .  A
C1436      C1437   1.396       .  A
C1437      H1442   1.084       .  S
C1438      C1439   1.412       .  A
C1438      H1443   1.079       .  S
C1439      C1440   1.395       .  A
C1440      H1444   1.083       .  S
C1445      C1446   1.401   1_545  A
C1445      H1451   1.083       .  S
C1447      H1452   1.082       .  S
C1448      C1449   1.402   1_565  A
C1448      H1453   1.083       .  S
C1450      H1454   1.082       .  S
C1455      C1456   1.405       .  A
C1455      C1460   1.408       .  A
C1455      H1461   1.083       .  S
C1456      C1457   1.405       .  A
C1457      C1458   1.395       .  A
C1457      H1462   1.083       .  S
C1458      C1459   1.404       .  A
C1458      H1463   1.083       .  S
C1459      C1460   1.410       .  A
C1460      H1464   1.083       .  S
C1465      C1466   1.410       .  A
C1465      C1470   1.407       .  A
C1465      H1471   1.083       .  S
C1466      C1467   1.404       .  A
C1467      C1468   1.394       .  A
C1468      C1469   1.405       .  A
C1468      H1473   1.083       .  S
C1469      C1470   1.405       .  A
C1470      H1474   1.083       .  S
C1475      C1476   1.401   1_545  A
C1475      H1481   1.083       .  S
C1476      C1477   1.407       .  A
C1477      H1482   1.082       .  S
C1478      C1479   1.401   1_565  A
C1478      H1483   1.083       .  S
C1479      C1480   1.407   1_556  A
C1480      H1484   1.081       .  S
C1485      C1486   1.411       .  A
C1485      H1491   1.084       .  S
C1486      C1487   1.397       .  A
C1487      C1488   1.398       .  A
C1487      H1492   1.083       .  S
C1488      H1493   1.083       .  S
C1489      C1490   1.397       .  A
C1490      H1494   1.083       .  S
C1495      C1496   1.408       .  A
C1495      C1500   1.408       .  A
C1495      H1501   1.082       .  S
C1496      C1497   1.403       .  A
C1497      C1498   1.392       .  A
C1497      H1502   1.083       .  S
C1498      C1499   1.406       .  A
C1498      H1503   1.083       .  S
C1499      C1500   1.408       .  A
C1500      H1504   1.083       .  S
C1505      C1506   1.406       .  A
C1505      C1510   1.395       .  A
C1505      H1511   1.083       .  S
C1506      C1507   1.404       .  A
C1507      C1508   1.407       .  A
C1507      H1512   1.083       .  S
C1508      C1509   1.411       .  A
C1508      H1513   1.083       .  S
C1509      C1510   1.403       .  A
C1515      C1516   1.405       .  A
C1515      C1520   1.394       .  A
C1515      H1521   1.083       .  S
C1516      C1517   1.410       .  A
C1517      C1518   1.408       .  A
C1517      H1522   1.083       .  S
C1518      C1519   1.406       .  A
C1518      H1523   1.083       .  S
C1519      C1520   1.405       .  A
C1520      H1524   1.083       .  S
C1525      C1526   1.415       .  A
C1525      C1530   1.399       .  A
C1525      H1531   1.081       .  S
C1526      C1527   1.397       .  A
C1527      C1528   1.399       .  A
C1527      H1532   1.085       .  S
C1528      C1529   1.415       .  A
C1528      H1533   1.081       .  S
C1529      C1530   1.398       .  A
C1530      H1534   1.085       .  S
C1535      C1536   1.417       .  A
C1535      C1540   1.401       .  A
C1535      H1541   1.081       .  S
C1536      C1537   1.396       .  A
C1537      C1538   1.398       .  A
C1537      H1542   1.085       .  S
C1538      C1539   1.416       .  A
C1538      H1543   1.081       .  S
C1539      C1540   1.398       .  A
C1540      H1544   1.084       .  S
C1545      C1546   1.406       .  A
C1545      H1551   1.081       .  S
C1546      C1547   1.407       .  A
C1547      H1552   1.084       .  S
C1548      C1549   1.406       .  A
C1548      H1553   1.081       .  S
C1549      C1550   1.404       .  A
C1550      H1554   1.084       .  S
C1555      C1556   1.411       .  A
C1555      C1560   1.400       .  A
C1555      H1561   1.082       .  S
C1556      C1557   1.398       .  A
C1557      C1558   1.399       .  A
C1557      H1562   1.084       .  S
C1558      C1559   1.411       .  A
C1558      H1563   1.082       .  S
C1559      C1560   1.398       .  A
C1560      H1564   1.083       .  S
C1565      C1566   1.397       .  A
C1565      C1570   1.399       .  A
C1565      H1571   1.085       .  S
C1566      C1567   1.417       .  A
C1567      C1568   1.398       .  A
C1567      H1572   1.081       .  S
C1568      C1569   1.396       .  A
C1568      H1573   1.085       .  S
C1569      C1570   1.416       .  A
C1570      H1574   1.081       .  S
C1575      C1576   1.402       .  A
C1575      H1581   1.083       .  S
C1576      C1577   1.404       .  A
C1577      H1582   1.083       .  S
C1578      C1579   1.402       .  A
C1578      H1583   1.083       .  S
C1579      C1580   1.405       .  A
C1580      H1584   1.082       .  S
C1585      C1586   1.405       .  A
C1585      C1590   1.408       .  A
C1585      H1591   1.083       .  S
C1586      C1587   1.405       .  A
C1587      C1588   1.395       .  A
C1587      H1592   1.083       .  S
C1588      C1589   1.404       .  A
C1588      H1593   1.083       .  S
C1589      C1590   1.410       .  A
C1590      H1594   1.083       .  S
C1595      C1596   1.410       .  A
C1595      C1600   1.408       .  A
C1595      H1601   1.083       .  S
C1596      C1597   1.403       .  A
C1597      C1598   1.395       .  A
C1598      C1599   1.405       .  A
C1598      H1603   1.083       .  S
C1599      C1600   1.405       .  A
C1600      H1604   1.083       .  S
C1605      C1606   1.413       .  A
C1605      C1610   1.400       .  A
C1605      H1611   1.082       .  S
C1606      C1607   1.400       .  A
C1607      C1608   1.401       .  A
C1607      H1612   1.084       .  S
C1608      C1609   1.414       .  A
C1608      H1613   1.082       .  S
C1609      C1610   1.399       .  A
C1610      H1614   1.085       .  S
C1615      C1616   1.401       .  A
C1615      C1620   1.392       .  A
C1615      H1621   1.082       .  S
C1616      C1617   1.406       .  A
C1617      C1618   1.388       .  A
C1617      H1622   1.083       .  S
C1618      C1619   1.400       .  A
C1618      H1623   1.083       .  S
C1619      C1620   1.406       .  A
C1620      H1624   1.084       .  S
C1625      C1626   1.410       .  A
C1625      C1630   1.397       .  A
C1625      H1631   1.081       .  S
C1626      C1627   1.396       .  A
C1627      C1628   1.397       .  A
C1627      H1632   1.084       .  S
C1628      C1629   1.411       .  A
C1628      H1633   1.081       .  S
C1629      C1630   1.397       .  A
C1630      H1634   1.083       .  S
C1635      C1636   1.403       .  A
C1635      H1641   1.084       .  S
C1636      C1637   1.407       .  A
C1637      H1642   1.082       .  S
C1638      C1639   1.407       .  A
C1638      H1643   1.083       .  S
C1639      C1640   1.407       .  A
C1640      H1644   1.082       .  S
C1645      C1646   1.405       .  A
C1645      C1650   1.406       .  A
C1645      H1651   1.083       .  S
C1646      C1647   1.405       .  A
C1647      C1648   1.394       .  A
C1647      H1652   1.083       .  S
C1648      C1649   1.404       .  A
C1649      C1650   1.409       .  A
C1650      H1654   1.083       .  S
C1655      C1656   1.404       .  A
C1655      C1660   1.393       .  A
C1655      H1661   1.083       .  S
C1656      C1657   1.410       .  A
C1657      C1658   1.406       .  A
C1657      H1662   1.083       .  S
C1658      C1659   1.404       .  A
C1658      H1663   1.083       .  S
C1659      C1660   1.405       .  A
C1660      H1664   1.083       .  S
