geometry optimzed in LAMMPS
_audit_creation_date              2020-12-01 
_audit_creation_method            'lammps2cif' 
_symmetry_space_group_name_H-M    'P1' 
_symmetry_Int_Tables_number       1 
_symmetry_cell_setting            triclinic 
loop_ 
_symmetry_equiv_pos_as_xyz 
  x,y,z 
_cell_length_a                    62.08213254 
_cell_length_b                    35.292633975046584 
_cell_length_c                    68.37667637975885 
_cell_angle_alpha                 90.01667710507179 
_cell_angle_beta                  90.1700540097262 
_cell_angle_gamma                 89.97773370291537 
loop_ 
_atom_site_label 
_atom_site_type_symbol 
_atom_site_fract_x 
_atom_site_fract_y 
_atom_site_fract_z 
_atom_site_charge 
O1          O  0.61108954  0.30552461  0.92039083    -0.80300
O2          O  0.61736308  0.26965771  0.83292220    -0.65000
O3          O  0.63263482  0.28443475  0.88672045    -1.11600
C4          C  0.63673438  0.41371579  0.87066811     1.06600
O5          O  0.64138526  0.31108577  0.82217318    -0.78200
O6          O  0.66802455  0.33700736  0.85030741    -0.65800
Ni7        Ni  0.61759394  0.25927862  0.90705649     1.34900
C8          C  0.67471598  0.33696479  0.86785602     0.85300
O9          O  0.62531437  0.22113259  0.86260451    -0.78700
O10         O  0.62311389  0.21143617  0.89512783    -0.89000
C11         C  0.62829102  0.28403983  0.81906378     0.84900
O12         O  0.58945779  0.26014060  0.89601566    -0.67200
O13         O  0.64273733  0.40070077  0.85417625    -0.86500
C14         C  0.58176160  0.26717076  0.87919802     0.85700
C15         C  0.62477727  0.19939278  0.87760743     1.07300
H16         H  0.60916367  0.33887360  0.85706718     0.39100
O17         O  0.62379966  0.33024292  0.85909709    -1.09100
O18         O  0.66215324  0.34056972  0.88242179    -0.65800
Ni19       Ni  0.63130839  0.33858244  0.88613923     1.26300
O20         O  0.59360070  0.27545573  0.86464707    -0.66000
O21         O  0.62969676  0.39261523  0.88434264    -0.78300
C22         C  0.62575784  0.32767605  0.92630801     0.85100
O23         O  0.63768459  0.34384548  0.91376197    -0.65500
Ni24       Ni  0.64133656  0.35392012  0.83971497     1.27400
Ni25       Ni  0.62437293  0.27577986  0.86018899     1.26100
H26         H  0.64754212  0.27672963  0.88797303     0.39700
O27         O  0.60885467  0.80648080  0.92118780    -0.80300
O28         O  0.61855073  0.76563489  0.83511542    -0.65000
O29         O  0.63215924  0.78462044  0.88882972    -1.11600
C30         C  0.62964828  0.91348334  0.86903751     1.06600
O31         O  0.64344421  0.80589884  0.82556615    -0.78200
O32         O  0.66588331  0.84807553  0.85146349    -0.65800
Ni33       Ni  0.61711609  0.75961970  0.90917095     1.34900
C34         C  0.67268268  0.84646425  0.86897264     0.85300
O35         O  0.62712569  0.71956816  0.86567605    -0.78700
O36         O  0.62437973  0.71125622  0.89826637    -0.89000
C37         C  0.63002947  0.77978899  0.82160719     0.84900
O38         O  0.58930357  0.75762135  0.89755768    -0.67200
O39         O  0.63380538  0.90036329  0.85207217    -0.86500
C40         C  0.58212326  0.76380260  0.88049794     0.85700
C41         C  0.62700967  0.69854073  0.88093350     1.07300
H42         H  0.60775653  0.83448151  0.85849380     0.39100
O43         O  0.62262952  0.82767963  0.86041015    -1.09100
O44         O  0.66033786  0.84270430  0.88367629    -0.65800
Ni45       Ni  0.62958279  0.83861436  0.88720818     1.26300
O46         O  0.59416945  0.77117981  0.86603789    -0.66000
O47         O  0.62689946  0.89262946  0.88412570    -0.78300
C48         C  0.62242078  0.83050237  0.92729728     0.85100
O49         O  0.63494526  0.84602801  0.91493468    -0.65500
Ni50       Ni  0.63807514  0.85195575  0.83999834     1.27400
Ni51       Ni  0.62482534  0.77366995  0.86233482     1.26100
H52         H  0.64723105  0.77811677  0.89054794     0.39700
O53         O  0.60424506  0.17082129  0.57938308    -0.80300
O54         O  0.61489550  0.21163232  0.66423913    -0.65000
O55         O  0.62903275  0.18984859  0.61105760    -1.11600
C56         C  0.62636865  0.06263768  0.63035517     1.06600
O57         O  0.63747166  0.16831811  0.67590047    -0.78200
O58         O  0.66240995  0.13914375  0.64706096    -0.65800
Ni59       Ni  0.61542479  0.21656982  0.59037801     1.34900
C60         C  0.66816566  0.13345728  0.62950166     0.85300
O61         O  0.62466035  0.25661075  0.63322239    -0.78700
O62         O  0.62593607  0.26338351  0.60050818    -0.89000
C63         C  0.62434935  0.19552703  0.67854065     0.84900
O64         O  0.58808065  0.22637365  0.60199321    -0.67200
O65         O  0.63550665  0.07666087  0.64545399    -0.86500
C66         C  0.58013262  0.21901901  0.61861531     0.85700
C67         C  0.62688524  0.27699900  0.61779143     1.07300
H68         H  0.60375411  0.14205080  0.64270917     0.39100
O69         O  0.61846285  0.14832286  0.63987217    -1.09100
O70         O  0.65475041  0.12772059  0.61570638    -0.65800
Ni71       Ni  0.62408105  0.13628861  0.61293804     1.26300
O72         O  0.59106458  0.20558402  0.63269406    -0.66000
O73         O  0.61893157  0.08310276  0.61650034    -0.78300
C74         C  0.61708471  0.14596746  0.57292622     0.85100
O75         O  0.62853307  0.12778935  0.58521484    -0.65500
Ni76       Ni  0.63604311  0.12446432  0.65909170     1.27400
Ni77       Ni  0.62158872  0.20228597  0.63723692     1.26100
H78         H  0.64433771  0.19431358  0.60965953     0.39700
O79         O  0.61024122  0.67845896  0.57850003    -0.80300
O80         O  0.61404218  0.70439576  0.66734983    -0.65000
O81         O  0.63162274  0.69228959  0.61410101    -1.11600
C82         C  0.63277687  0.56291381  0.62756206     1.06600
O83         O  0.63778468  0.66202811  0.67796293    -0.78200
O84         O  0.66489893  0.63988267  0.64908523    -0.65800
Ni85       Ni  0.61947062  0.72183495  0.59366807     1.34900
C86         C  0.67156952  0.63640971  0.63165089     0.85300
O87         O  0.62404066  0.75445182  0.63915016    -0.78700
O88         O  0.62809624  0.76722459  0.60705965    -0.89000
C89         C  0.62438231  0.68858973  0.68124754     0.84900
O90         O  0.59100673  0.72702310  0.60386064    -0.67200
O91         O  0.64042597  0.57522472  0.64371100    -0.86500
C92         C  0.58170212  0.71753856  0.61965504     0.85700
C93         C  0.62725395  0.77736119  0.62497354     1.07300
H94         H  0.60599160  0.63756735  0.64264538     0.39100
O95         O  0.62066929  0.64562948  0.64063342    -1.09100
O96         O  0.65881246  0.63177784  0.61724307    -0.65800
Ni97       Ni  0.62801830  0.63852594  0.61365237     1.26300
O98         O  0.59180934  0.70268450  0.63399965    -0.66000
O99         O  0.62435939  0.58468382  0.61475825    -0.78300
C100        C  0.62262954  0.65150882  0.57342945     0.85100
O101        O  0.63400277  0.63445487  0.58615830    -0.65500
Ni102      Ni  0.63850810  0.62074251  0.65938155     1.27400
Ni103      Ni  0.62219915  0.69989043  0.64034611     1.26100
H104        H  0.64685903  0.69786277  0.61393276     0.39700
O105        O  0.39453725  0.18344920  0.92091814    -0.80300
O106        O  0.38536727  0.21977288  0.83343836    -0.65000
O107        O  0.37144825  0.20331568  0.88744559    -1.11600
C108        C  0.37296050  0.07405507  0.86942102     1.06600
O109        O  0.35996437  0.17979652  0.82430764    -0.78200
O110        O  0.33656459  0.14308318  0.85134143    -0.65800
Ni111      Ni  0.38586178  0.22928614  0.90788824     1.34900
C112        C  0.33030351  0.14490554  0.86896768     0.85300
O113        O  0.37727563  0.26777000  0.86371242    -0.78700
O114        O  0.37805841  0.27662198  0.89636828    -0.89000
C115        C  0.37386601  0.20490499  0.82000800     0.84900
O116        O  0.41372846  0.23298164  0.89641364    -0.67200
O117        O  0.36704882  0.08650059  0.85272342    -0.86500
C118        C  0.42133427  0.22632803  0.87954503     0.85700
C119        C  0.37678950  0.28915029  0.87888200     1.07300
H120        H  0.39547734  0.15171602  0.85729708     0.39100
O121        O  0.38069938  0.15907240  0.85945234    -1.09100
O122        O  0.34329540  0.14530681  0.88339073    -0.65800
Ni123      Ni  0.37415214  0.14937991  0.88643829     1.26300
O124        O  0.40978458  0.21542947  0.86519799    -0.66000
O125        O  0.37707174  0.09550186  0.88399799    -0.78300
C126        C  0.38122038  0.15862502  0.92669526     0.85100
O127        O  0.36899508  0.14283223  0.91414341    -0.65500
Ni128      Ni  0.36401071  0.13455039  0.83975303     1.27400
Ni129      Ni  0.37903417  0.21323050  0.86088232     1.26100
H130        H  0.35639085  0.20972913  0.88879395     0.39700
O131        O  0.39426604  0.67985813  0.92175204    -0.80300
O132        O  0.38473948  0.72341220  0.83436657    -0.65000
O133        O  0.37257777  0.70382615  0.88844868    -1.11600
C134        C  0.37590568  0.57480302  0.86757659     1.06600
O135        O  0.35982342  0.68251373  0.82571998    -0.78200
O136        O  0.33927183  0.63463158  0.85020365    -0.65800
Ni137      Ni  0.38873722  0.72708237  0.90878906     1.34900
C138        C  0.33193212  0.63971571  0.86732361     0.85300
O139        O  0.37671171  0.76911988  0.86538156    -0.49900
O140        O  0.38446939  0.77615567  0.89741254    -0.89000
C141        C  0.37309596  0.70837690  0.82111167     0.84900
O142        O  0.41635928  0.72317360  0.89722103    -0.67200
O143        O  0.37388668  0.58764475  0.85021711    -0.86500
C144        C  0.42282357  0.72145307  0.87969140     0.85700
C145        C  0.38003617  0.78961407  0.88054707     1.07300
H146        H  0.39691778  0.65477633  0.85831950     0.39100
O147        O  0.38188942  0.66114175  0.85980164    -1.09100
O148        O  0.34376934  0.64762315  0.88196749    -0.65800
Ni149      Ni  0.37437691  0.64978484  0.88629738     1.26300
O150        O  0.41011770  0.71892297  0.86513746    -0.66000
O151        O  0.37627063  0.59575762  0.88284721    -0.78300
C152        C  0.37987771  0.65636144  0.92683805     0.85100
O153        O  0.36801168  0.64163290  0.91369005    -0.65500
Ni154      Ni  0.36732373  0.63608194  0.83896172     1.27400
Ni155      Ni  0.37931450  0.71517847  0.86181391     1.26100
H156        H  0.35773735  0.71095974  0.89056637     0.39700
O157        O  0.39046791  0.31319574  0.57614794    -0.80300
O158        O  0.38691676  0.27098193  0.66319697    -0.65000
O159        O  0.36995126  0.29052948  0.61011891    -1.11600
C160        C  0.37599631  0.41992838  0.62982367     1.06600
O161        O  0.36333496  0.31336389  0.67333322    -0.78200
O162        O  0.34087152  0.36052162  0.65021350    -0.65800
Ni163      Ni  0.38331274  0.26615283  0.58864093     1.34900
C164        C  0.33156019  0.35549652  0.63385033     0.85300
O165        O  0.37661780  0.22510983  0.63261583    -0.78700
O166        O  0.37689465  0.21768133  0.59972564    -0.89000
C167        C  0.37629624  0.28637168  0.67701576     0.84900
O168        O  0.41200947  0.26339484  0.59846992    -0.67200
O169        O  0.37562135  0.40735805  0.64732124    -0.86500
C170        C  0.42053458  0.26794092  0.61517529     0.85700
C171        C  0.37576033  0.20469567  0.61711345     1.07300
H172        H  0.39715629  0.33961047  0.63804355     0.39100
O173        O  0.38202154  0.33342190  0.63770775    -1.09100
O174        O  0.34188701  0.34780421  0.61823579    -0.65800
Ni175      Ni  0.37220324  0.34453360  0.61175237     1.26300
O176        O  0.40961104  0.27557745  0.63039640    -0.66000
O177        O  0.37465129  0.39878123  0.61465063    -0.78300
C178        C  0.37641326  0.33767829  0.57142387     0.85100
O179        O  0.36425054  0.35175751  0.58455986    -0.65500
Ni180      Ni  0.36985952  0.35924977  0.65932608     1.27400
Ni181      Ni  0.37926465  0.27924843  0.63607052     1.26100
H182        H  0.35486069  0.28388811  0.60934249     0.39700
O183        O  0.39153673  0.81083293  0.57634432    -0.80300
O184        O  0.38766940  0.77589208  0.66460583    -0.65000
O185        O  0.37074873  0.79160945  0.61104162    -1.11600
C186        C  0.37045015  0.92113567  0.62675128     1.06600
O187        O  0.36551696  0.82012466  0.67593875    -0.78200
O188        O  0.33830571  0.84822391  0.64872668    -0.65800
Ni189      Ni  0.38450788  0.76531081  0.59023333     1.34900
C190        C  0.33088657  0.85022298  0.63144343     0.85300
O191        O  0.37773615  0.72750639  0.63503701    -0.78700
O192        O  0.37860239  0.71783294  0.60246492    -0.89000
C193        C  0.37834963  0.79260480  0.67880555     0.84900
O194        O  0.41311296  0.76459257  0.60031250    -0.67200
O195        O  0.36497734  0.90891579  0.64352751    -0.86500
C196        C  0.42151722  0.77097647  0.61692238     0.85700
C197        C  0.37754771  0.70569581  0.62000947     1.07300
H198        H  0.39666593  0.84415443  0.63979520     0.39100
O199        O  0.38179588  0.83677859  0.63830465    -1.09100
O200        O  0.34294035  0.85117475  0.61638139    -0.65800
Ni201      Ni  0.37354936  0.84564268  0.61149245     1.26300
O202        O  0.41039082  0.77969745  0.63189385    -0.66000
O203        O  0.37682706  0.89943672  0.61306343    -0.78300
C204        C  0.37757202  0.83494686  0.57104130     0.85100
O205        O  0.36633909  0.85145374  0.58402413    -0.65500
Ni206      Ni  0.36593250  0.86248910  0.65820352     1.27400
Ni207      Ni  0.37983440  0.78228176  0.63738639     1.26100
H208        H  0.35564440  0.78525496  0.61023944     0.39700
O209        O  0.89102007  0.06075184  0.57927275    -0.80300
O210        O  0.88245209  0.01444078  0.66728741    -0.65000
O211        O  0.87062011  0.03334307  0.61303213    -1.11600
C212        C  0.86928568  0.16237164  0.63417360     1.06600
O213        O  0.85655533  0.05335051  0.67601230    -0.78200
O214        O  0.83453128  0.09826753  0.65139313    -0.65800
Ni215      Ni  0.88877074  0.01335969  0.59316765     1.34900
C216        C  0.82722924  0.09074640  0.63448395     0.85300
O217        O  0.87638138  0.96867678  0.63606461    -0.78700
O218        O  0.88772621  0.96385418  0.60494173    -0.89000
C219        C  0.87033914  0.02819824  0.68047528     0.84900
O220        O  0.91560978  0.02426618  0.60540849    -0.67200
O221        O  0.86764377  0.14923301  0.65148924    -0.86500
C222        C  0.92138536  0.02342369  0.62319142     0.85700
C223        C  0.88227697  0.94911755  0.62125992     1.07300
H224        H  0.89281187  0.08463444  0.64344888     0.39100
O225        O  0.87804056  0.07673787  0.64196016    -1.09100
O226        O  0.83934455  0.08456945  0.61987002    -0.65800
Ni227      Ni  0.86988338  0.08720982  0.61546045     1.26300
O228        O  0.90812226  0.02132359  0.63726143    -0.66000
O229        O  0.86957739  0.14147858  0.61888277    -0.78300
C230        C  0.87545745  0.08259673  0.57495910     0.85100
O231        O  0.86277144  0.09426273  0.58822207    -0.65500
Ni232      Ni  0.86258689  0.10027362  0.66271533     1.27400
Ni233      Ni  0.87721599  0.02257972  0.63981223     1.26100
H234        H  0.85623191  0.02403078  0.61038482     0.39700
O235        O  0.89105193  0.55362439  0.57805276    -0.80300
O236        O  0.88630204  0.51668403  0.66618786    -0.65000
O237        O  0.87106013  0.53318278  0.61255343    -1.11600
C238        C  0.87729404  0.66369144  0.62996473     1.06600
O239        O  0.86405422  0.56129317  0.67651054    -0.78200
O240        O  0.84079376  0.60312330  0.65118650    -0.65800
Ni241      Ni  0.88583855  0.50756673  0.59211960     1.34900
C242        C  0.83232403  0.59744075  0.63451317     0.85300
O243        O  0.87553981  0.46947940  0.63673851    -0.78700
O244        O  0.88158315  0.45955675  0.60467856    -0.89000
C245        C  0.87658525  0.53364280  0.67998604     0.84900
O246        O  0.91430362  0.51086582  0.60233813    -0.67200
O247        O  0.87478689  0.65220060  0.64746488    -0.86500
C248        C  0.92166072  0.51295695  0.61960738     0.85700
C249        C  0.87772389  0.44757409  0.62194678     1.07300
H250        H  0.89800225  0.58335587  0.64049789     0.39100
O251        O  0.88283011  0.57767080  0.63980781    -1.09100
O252        O  0.84343359  0.59116043  0.61922218    -0.65800
Ni253      Ni  0.87372046  0.58731297  0.61333490     1.26300
O254        O  0.90973337  0.51756817  0.63450184    -0.66000
O255        O  0.87693136  0.64163266  0.61513307    -0.78300
C256        C  0.87615465  0.57609506  0.57291056     0.85100
O257        O  0.86545999  0.59313871  0.58610633    -0.65500
Ni258      Ni  0.86971891  0.60524894  0.66066356     1.27400
Ni259      Ni  0.87924261  0.52354124  0.63902338     1.26100
H260        H  0.85601464  0.52656401  0.61121912     0.39700
O261        O  0.89771080  0.41505714  0.92056039    -0.80300
O262        O  0.88762661  0.46178380  0.83458601    -0.65000
O263        O  0.87497469  0.43980014  0.88818070    -1.11600
C264        C  0.87801579  0.31177052  0.86643967     1.06600
O265        O  0.86259571  0.42139300  0.82507780    -0.78200
O266        O  0.84120995  0.37551184  0.84957286    -0.65800
Ni267      Ni  0.89040387  0.46280696  0.90897990     1.34900
C268        C  0.83421210  0.37832801  0.86692076     0.85300
O269        O  0.87962499  0.50625835  0.86611352    -0.78700
O270        O  0.88413658  0.51197935  0.89874800    -0.89000
C271        C  0.87556247  0.44823017  0.82123094     0.84900
O272        O  0.91821192  0.46421184  0.89741278    -0.67200
O273        O  0.87464305  0.32528850  0.84937525    -0.86500
C274        C  0.92524116  0.46143634  0.88008651     0.85700
C275        C  0.88106616  0.52610002  0.88177484     1.07300
H276        H  0.89920919  0.39192583  0.85735849     0.39100
O277        O  0.88439929  0.39833978  0.85913572    -1.09100
O278        O  0.84647837  0.38276262  0.88168238    -0.65800
Ni279      Ni  0.87719786  0.38595709  0.88561225     1.26300
O280        O  0.91293400  0.45567917  0.86545759    -0.66000
O281        O  0.87967262  0.33226644  0.88177507    -0.78300
C282        C  0.88355443  0.39136634  0.92589252     0.85100
O283        O  0.87130517  0.37689683  0.91297141    -0.65500
Ni284      Ni  0.86918608  0.37446134  0.83829570     1.27400
Ni285      Ni  0.88204823  0.45232154  0.86184715     1.26100
H286        H  0.85984234  0.44650353  0.89010594     0.39700
O287        O  0.89234604  0.92301522  0.92443913    -0.80300
O288        O  0.88508777  0.95690086  0.83515365    -0.65000
O289        O  0.87158958  0.94118601  0.88933640    -1.11600
C290        C  0.87945715  0.81097635  0.87191587     1.06600
O291        O  0.86174035  0.91288581  0.82685341    -0.78200
O292        O  0.84165466  0.86658461  0.85205896    -0.65800
Ni293      Ni  0.88627042  0.96788012  0.90949852     1.34900
C294        C  0.83360394  0.87185191  0.86886754     0.85300
O295        O  0.87485793  0.00472490  0.86453179    -0.78700
O296        O  0.88167015  0.01519191  0.89643120    -0.89000
C297        C  0.87420365  0.93977682  0.82204943     0.84900
O298        O  0.91447800  0.96489706  0.89899726    -0.67200
O299        O  0.87727791  0.82220784  0.85429430    -0.86500
C300        C  0.92156427  0.96357796  0.88164850     0.85700
C301        C  0.87782605  0.02686877  0.87910507     1.07300
H302        H  0.89841244  0.89192763  0.86109939     0.39100
O303        O  0.88325345  0.89693660  0.86207424    -1.09100
O304        O  0.84486382  0.88139299  0.88363179    -0.65800
Ni305      Ni  0.87519137  0.88725382  0.88862619     1.26300
O306        O  0.90949863  0.95824178  0.86681454    -0.66000
O307        O  0.87900893  0.83320527  0.88668389    -0.78300
C308        C  0.87894727  0.89750773  0.92918477     0.85100
O309        O  0.86808685  0.88091893  0.91592253    -0.65500
Ni310      Ni  0.86999482  0.86874155  0.84158362     1.27400
Ni311      Ni  0.87898540  0.95075529  0.86261675     1.26100
H312        H  0.85629861  0.94704163  0.89084320     0.39700
O313        O  0.10883931  0.06596471  0.92829309    -0.80300
O314        O  0.11509854  0.03376022  0.83790981    -0.65000
O315        O  0.12876865  0.04685408  0.89238617    -1.11600
C316        C  0.12797559  0.17760105  0.87542120     1.06600
O317        O  0.14037121  0.07400689  0.82907990    -0.78200
O318        O  0.16354682  0.11201264  0.85586980    -0.65800
Ni319      Ni  0.11195380  0.02173683  0.91185684     1.34900
C320        C  0.17046391  0.10733379  0.87317959     0.85300
O321        O  0.12394441  0.98484314  0.86691894    -0.78700
O322        O  0.11360123  0.97432059  0.89790253    -0.89000
C323        C  0.12688504  0.04827694  0.82475397     0.84900
O324        O  0.08436988  0.03221392  0.90096117    -0.67200
O325        O  0.13188205  0.16585496  0.85815581    -0.86500
C326        C  0.07795275  0.03341212  0.88335808     0.85700
C327        C  0.11883656  0.96268341  0.88087937     1.07300
H328        H  0.10480708  0.10026737  0.86328676     0.39100
O329        O  0.11967437  0.09292767  0.86485255    -1.09100
O330        O  0.15814159  0.10334211  0.88784583    -0.65800
Ni331      Ni  0.12742015  0.10106624  0.89178505     1.26300
O332        O  0.09075314  0.03499184  0.86889017    -0.66000
O333        O  0.12556282  0.15546347  0.89004216    -0.78300
C334        C  0.12270981  0.09120292  0.93246525     0.85100
O335        O  0.13424286  0.10608573  0.91920858    -0.65500
Ni336      Ni  0.13555465  0.11850740  0.84489928     1.27400
Ni337      Ni  0.12153061  0.03890023  0.86535585     1.26100
H338        H  0.14355721  0.03895329  0.89429748     0.39700
O339        O  0.10945336  0.57558376  0.92316140    -0.80300
O340        O  0.12088102  0.52656753  0.83662904    -0.65000
O341        O  0.13169075  0.54968930  0.89053140    -1.11600
C342        C  0.12622087  0.67785082  0.86827319     1.06600
O343        O  0.14386648  0.57001748  0.82682237    -0.78200
O344        O  0.16377692  0.61900920  0.85108225    -0.65800
Ni345      Ni  0.11463250  0.52773228  0.91060324     1.34900
C346        C  0.17152663  0.61398286  0.86808565     0.85300
O347        O  0.12968564  0.48321655  0.86844142    -0.78700
O348        O  0.11880302  0.47811182  0.89975854    -0.89000
C349        C  0.13168086  0.54204451  0.82302512     0.84900
O350        O  0.08721801  0.53203901  0.89821392    -0.67200
O351        O  0.12829892  0.66432684  0.85108309    -0.86500
C352        C  0.08164405  0.52923733  0.88042842     0.85700
C353        C  0.12503792  0.46357480  0.88361651     1.07300
H354        H  0.10663578  0.59565376  0.85981544     0.39100
O355        O  0.12181513  0.59051690  0.86124331    -1.09100
O356        O  0.16003790  0.60591486  0.88288961    -0.65800
Ni357      Ni  0.12952478  0.60343079  0.88764513     1.26300
O358        O  0.09504947  0.52984670  0.86643564    -0.66000
O359        O  0.12696494  0.65744988  0.88374198    -0.78300
C360        C  0.12436648  0.59820526  0.92814811     0.85100
O361        O  0.13639112  0.61231956  0.91496746    -0.65500
Ni362      Ni  0.13559158  0.61602508  0.84008567     1.27400
Ni363      Ni  0.12575416  0.53669240  0.86395347     1.26100
H364        H  0.14650151  0.54295275  0.89327790     0.39700
O365        O  0.11928128  0.44182109  0.57601491    -0.80300
O366        O  0.11553748  0.46885657  0.66845859    -0.65000
O367        O  0.13246955  0.45329327  0.61502503    -1.11600
C368        C  0.12440108  0.32265347  0.63197541     1.06600
O369        O  0.13735894  0.42419787  0.67926221    -0.78200
O370        O  0.16086998  0.38267311  0.65398927    -0.65800
Ni371      Ni  0.11718525  0.48121223  0.59536440     1.34900
C372        C  0.16936744  0.38611489  0.63721454     0.85300
O373        O  0.12883005  0.51566802  0.64041015    -0.78700
O374        O  0.11416851  0.52611546  0.61120832    -0.89000
C375        C  0.12496271  0.45210346  0.68249735     0.84900
O376        O  0.08973685  0.46296164  0.60341967    -0.67200
O377        O  0.12730571  0.33396615  0.64945571    -0.86500
C378        C  0.08168997  0.46611536  0.62040468     0.85700
C379        C  0.12136633  0.53805154  0.62751640     1.07300
H380        H  0.10391616  0.40370522  0.64253147     0.39100
O381        O  0.11917722  0.40870698  0.64196154    -1.09100
O382        O  0.15848484  0.39261331  0.62173455    -0.65800
Ni383      Ni  0.12826033  0.39908987  0.61560511     1.26300
O384        O  0.09340422  0.46988155  0.63565620    -0.66000
O385        O  0.12386220  0.34503681  0.61728916    -0.78300
C386        C  0.12939956  0.41074579  0.57399508     0.85100
O387        O  0.13623278  0.39169449  0.58857767    -0.65500
Ni388      Ni  0.13189126  0.38065818  0.66296941     1.27400
Ni389      Ni  0.12371025  0.46225005  0.64158237     1.26100
H390        H  0.14761097  0.45913932  0.61383045     0.39700
O391        O  0.10659076  0.92673356  0.58439720    -0.80300
O392        O  0.11610213  0.97332601  0.66990689    -0.65000
O393        O  0.13003754  0.95081404  0.61650706    -1.11600
C394        C  0.12728579  0.82338074  0.63889306     1.06600
O395        O  0.14191069  0.93491347  0.67935300    -0.78200
O396        O  0.16455914  0.89058272  0.65478231    -0.65800
Ni397      Ni  0.11495232  0.97428742  0.59556377     1.34900
C398        C  0.17082237  0.89002506  0.63713306     0.85300
O399        O  0.12437711  0.01797040  0.63835064    -0.78700
O400        O  0.12194860  0.02337923  0.60551576    -0.89000
C401        C  0.12745957  0.95905586  0.68356137     0.84900
O402        O  0.08720292  0.97760093  0.60699449    -0.67200
O403        O  0.13238432  0.83761991  0.65545342    -0.86500
C404        C  0.07993977  0.97309778  0.62412944     0.85700
C405        C  0.12370874  0.03768097  0.62259544     1.07300
H406        H  0.10590406  0.90295768  0.64794831     0.39100
O407        O  0.12071835  0.90979526  0.64572310    -1.09100
O408        O  0.15799710  0.89210883  0.62261716    -0.65800
Ni409      Ni  0.12725807  0.89684417  0.61918251     1.26300
O410        O  0.09191544  0.96554567  0.63869574    -0.66000
O411        O  0.12422094  0.84319099  0.62344422    -0.78300
C412        C  0.12005682  0.90210053  0.57885076     0.85100
O413        O  0.13242973  0.88721518  0.59160920    -0.65500
Ni414      Ni  0.13674959  0.88724885  0.66639901     1.27400
Ni415      Ni  0.12257972  0.96380073  0.64276395     1.26100
H416        H  0.14513234  0.95700395  0.61476757     0.39700
O417        O  0.35968389  0.16357177  0.17542897    -0.80300
O418        O  0.36493224  0.12912785  0.08535372    -0.65000
O419        O  0.38003240  0.14518233  0.13943477    -1.11600
C420        C  0.37887193  0.27411967  0.12184465     1.06600
O421        O  0.39034516  0.16912232  0.07598984    -0.78200
O422        O  0.41446433  0.20348480  0.10308851    -0.65800
Ni423      Ni  0.36561241  0.11887024  0.16007599     1.34900
C424        C  0.42063248  0.20462845  0.12074525     0.85300
O425        O  0.37405369  0.08108023  0.11508919    -0.78700
O426        O  0.37043524  0.07135284  0.14740532    -0.89000
C427        C  0.37671019  0.14338908  0.07204064     0.84900
O428        O  0.33717327  0.12108800  0.14952160    -0.67200
O429        O  0.38533659  0.26184122  0.10531007    -0.86500
C430        C  0.32968384  0.12641261  0.13245112     0.85700
C431        C  0.37290979  0.05930245  0.12999395     1.07300
H432        H  0.35528760  0.19689349  0.10911882     0.39100
O433        O  0.37006686  0.18948341  0.11135195    -1.09100
O434        O  0.40759450  0.20509032  0.13504088    -0.65800
Ni435      Ni  0.37685045  0.19907880  0.13823764     1.26300
O436        O  0.34129466  0.13310258  0.11753667    -0.66000
O437        O  0.37307775  0.25263379  0.13583408    -0.78300
C438        C  0.37238230  0.19090550  0.17911201     0.85100
O439        O  0.38300250  0.20631838  0.16546538    -0.65500
Ni440      Ni  0.38708099  0.21393276  0.09184854     1.27400
Ni441      Ni  0.37191390  0.13547046  0.11273827     1.26100
H442        H  0.39514101  0.13909887  0.14069663     0.39700
O443        O  0.36371856  0.66647630  0.17579574    -0.80300
O444        O  0.36774345  0.62666543  0.08647756    -0.65000
O445        O  0.38289883  0.64451940  0.14022230    -1.11600
C446        C  0.38076772  0.77351112  0.11952294     1.06600
O447        O  0.39461620  0.66367757  0.07789129    -0.78200
O448        O  0.41710773  0.70851000  0.10216735    -0.65800
Ni449      Ni  0.36763150  0.62057316  0.16097909     1.34900
C450        C  0.42405694  0.70530285  0.11953760     0.85300
O451        O  0.37638568  0.57993034  0.11658196    -0.78700
O452        O  0.37031475  0.57203324  0.14862479    -0.89000
C453        C  0.38022277  0.63960563  0.07340298     0.84900
O454        O  0.33941835  0.62666982  0.15057814    -0.67200
O455        O  0.38422049  0.76023081  0.10241096    -0.86500
C456        C  0.33203022  0.62891473  0.13329601     0.85700
C457        C  0.37362089  0.55887835  0.13151824     1.07300
H458        H  0.35841854  0.69536428  0.11011970     0.39100
O459        O  0.37329089  0.68785073  0.11178774    -1.09100
O460        O  0.41180687  0.70101873  0.13418800    -0.65800
Ni461      Ni  0.38120809  0.69867155  0.13822030     1.26300
O462        O  0.34400507  0.63177999  0.11828439    -0.66000
O463        O  0.37918616  0.75275146  0.13480261    -0.78300
C464        C  0.37739766  0.69245192  0.17918082     0.85100
O465        O  0.38821777  0.70675856  0.16529821    -0.65500
Ni466      Ni  0.38896270  0.71101909  0.09107462     1.27400
Ni467      Ni  0.37467702  0.63391148  0.11369742     1.26100
H468        H  0.39778553  0.63718996  0.14169107     0.39700
O469        O  0.36386492  0.32275207  0.32028615    -0.80300
O470        O  0.36985256  0.35656262  0.41202576    -0.65000
O471        O  0.38212545  0.33828697  0.35750005    -1.11600
C472        C  0.36953711  0.20950225  0.37698946     1.06600
O473        O  0.39290207  0.31160014  0.41881426    -0.78200
O474        O  0.40963950  0.25881118  0.39538560    -0.65800
Ni475      Ni  0.36654646  0.36536994  0.33781900     1.34900
C476        C  0.41797254  0.26423898  0.37871227     0.85300
O477        O  0.38116839  0.40270246  0.38217610    -0.78700
O478        O  0.36788118  0.41223617  0.35214429    -0.89000
C479        C  0.38072708  0.33813724  0.42463843     0.84900
O480        O  0.33901051  0.35389277  0.34829863    -0.67200
O481        O  0.37144103  0.22108583  0.39460915    -0.86500
C482        C  0.33236185  0.35679949  0.36577457     0.85700
C483        C  0.37496684  0.42462574  0.36843822     1.07300
H484        H  0.35421079  0.29253072  0.38653849     0.39100
O485        O  0.36957699  0.29608153  0.38545737    -1.09100
O486        O  0.40730170  0.27624942  0.36404223    -0.65800
Ni487      Ni  0.37699802  0.28452338  0.35919088     1.26300
O488        O  0.34504344  0.35885211  0.38041769    -0.66000
O489        O  0.37168058  0.23099748  0.36205257    -0.78300
C490        C  0.37350121  0.29124259  0.31808384     0.85100
O491        O  0.38326714  0.27522548  0.33219418    -0.65500
Ni492      Ni  0.38178790  0.26724937  0.40612002     1.27400
Ni493      Ni  0.37543856  0.34934092  0.38442699     1.26100
H494        H  0.39728418  0.34297386  0.35545604     0.39700
O495        O  0.36072264  0.81276679  0.32258262    -0.80300
O496        O  0.36808631  0.85738950  0.41140962    -0.65000
O497        O  0.38066302  0.83890740  0.35705344    -1.11600
C498        C  0.38119009  0.71006709  0.37859248     1.06600
O499        O  0.39537115  0.82062237  0.41907483    -0.78200
O500        O  0.41705507  0.77381102  0.39509547    -0.65800
Ni501      Ni  0.36285868  0.85954193  0.33694079     1.34900
C502        C  0.42404226  0.77944421  0.37792385     0.85300
O503        O  0.37396053  0.90380418  0.38024217    -0.78700
O504        O  0.36359506  0.90874266  0.34891150    -0.89000
C505        C  0.38103486  0.84429929  0.42420863     0.84900
O506        O  0.33588613  0.84803661  0.34861404    -0.67200
O507        O  0.38369334  0.72355509  0.39580469    -0.86500
C508        C  0.32970019  0.84681301  0.36625068     0.85700
C509        C  0.36865039  0.92354605  0.36529617     1.07300
H510        H  0.35854997  0.78732757  0.38761252     0.39100
O511        O  0.37326980  0.79562420  0.38593477    -1.09100
O512        O  0.41171952  0.78571110  0.36340077    -0.65800
Ni513      Ni  0.38094810  0.78480888  0.35948503     1.26300
O514        O  0.34262169  0.84929617  0.38067777    -0.66000
O515        O  0.38052981  0.73062418  0.36317337    -0.78300
C516        C  0.37567829  0.78949754  0.31866085     0.85100
O517        O  0.38765291  0.77691427  0.33229958    -0.65500
Ni518      Ni  0.38914049  0.77287764  0.40661868     1.27400
Ni519      Ni  0.37357640  0.84971816  0.38382244     1.26100
H520        H  0.39512294  0.84783890  0.35472672     0.39700
O521        O  0.63808374  0.31080667  0.17540690    -0.80300
O522        O  0.63271777  0.35072325  0.08555962    -0.65000
O523        O  0.61902485  0.33351355  0.13971622    -1.11600
C524        C  0.62121343  0.20390847  0.11947542     1.06600
O525        O  0.60689067  0.31144799  0.07715264    -0.78200
O526        O  0.58537530  0.26474857  0.10122546    -0.65800
Ni527      Ni  0.63631732  0.35601082  0.15969828     1.34900
C528        C  0.57767583  0.27054982  0.11811931     0.85300
O529        O  0.62420124  0.39763564  0.11584055    -0.78700
O530        O  0.63587682  0.40436550  0.14672598    -0.89000
C531        C  0.62093447  0.33587087  0.07242018     0.84900
O532        O  0.66351366  0.34328911  0.14864829    -0.67200
O533        O  0.61943602  0.21657488  0.10205826    -0.86500
C534        C  0.66992955  0.34408165  0.13106347     0.85700
C535        C  0.62993367  0.41815257  0.13032852     1.07300
H536        H  0.64327397  0.28258506  0.11021722     0.39100
O537        O  0.62829723  0.28967254  0.11140816    -1.09100
O538        O  0.58937819  0.27834820  0.13289111    -0.65800
Ni539      Ni  0.61997350  0.27937065  0.13777260     1.26300
O540        O  0.65716383  0.34678703  0.11657485    -0.66000
O541        O  0.62135024  0.22516637  0.13463694    -0.78300
C542        C  0.62416067  0.28522296  0.17874749     0.85100
O543        O  0.61271798  0.27183002  0.16492057    -0.65500
Ni544      Ni  0.61363833  0.26494451  0.09050792     1.27400
Ni545      Ni  0.62638260  0.34369652  0.11293889     1.26100
H546        H  0.60436485  0.34164562  0.14181259     0.39700
O547        O  0.64232751  0.81254759  0.17388354    -0.80300
O548        O  0.63390524  0.85178705  0.08575253    -0.65000
O549        O  0.61983209  0.83220193  0.13935281    -1.11600
C550        C  0.62619953  0.70350138  0.12006288     1.06600
O551        O  0.61046069  0.80892885  0.07557651    -0.78200
O552        O  0.58845513  0.76634178  0.10113820    -0.65800
Ni553      Ni  0.63394733  0.85821000  0.16016766     1.34900
C554        C  0.58126526  0.76846531  0.11844245     0.85300
O555        O  0.62332366  0.89750827  0.11601968    -0.78700
O556        O  0.62649770  0.90577956  0.14860404    -0.89000
C557        C  0.62317491  0.83628747  0.07209104     0.84900
O558        O  0.66205195  0.86176468  0.14902341    -0.67200
O559        O  0.62182157  0.71563866  0.10291675    -0.86500
C560        C  0.66924083  0.85812768  0.13175522     0.85700
C561        C  0.62374704  0.91849534  0.13130169     1.07300
H562        H  0.64627399  0.78437927  0.10946742     0.39100
O563        O  0.63109010  0.78983614  0.11105434    -1.09100
O564        O  0.59336990  0.77234045  0.13336397    -0.65800
Ni565      Ni  0.62387219  0.77868740  0.13767396     1.26300
O566        O  0.65756996  0.84926000  0.11721241    -0.66000
O567        O  0.62815086  0.72511456  0.13492910    -0.78300
C568        C  0.62978895  0.78527597  0.17812189     0.85100
O569        O  0.61783685  0.77077306  0.16497787    -0.65500
Ni570      Ni  0.61663458  0.76366458  0.09045554     1.27400
Ni571      Ni  0.62721988  0.84356675  0.11287565     1.26100
H572        H  0.60468178  0.83744291  0.14081030     0.39700
O573        O  0.64174411  0.18338539  0.32714590    -0.80300
O574        O  0.63385360  0.14053657  0.41393708    -0.65000
O575        O  0.61962107  0.16009656  0.36030530    -1.11600
C576        C  0.61800482  0.28848846  0.38054691     1.06600
O577        O  0.60822816  0.17922289  0.42414913    -0.78200
O578        O  0.58394115  0.21594541  0.39785488    -0.65800
Ni579      Ni  0.63516425  0.13624042  0.33972491     1.34900
C580        C  0.57754599  0.21632383  0.38023060     0.85300
O581        O  0.62498145  0.09462999  0.38319065    -0.78700
O582        O  0.62926791  0.08736050  0.35071298    -0.89000
C583        C  0.62218023  0.15373800  0.42754392     0.84900
O584        O  0.66331676  0.13693842  0.35100149    -0.67200
O585        O  0.61290589  0.27432247  0.39706363    -0.86500
C586        C  0.67018708  0.14118313  0.36833077     0.85700
C587        C  0.62556570  0.07409731  0.36774683     1.07300
H588        H  0.64318182  0.21066779  0.39140800     0.39100
O589        O  0.62840772  0.20297798  0.38914831    -1.09100
O590        O  0.59039231  0.21683588  0.36575216    -0.65800
Ni591      Ni  0.62129753  0.21419321  0.36235834     1.26300
O592        O  0.65789880  0.14672353  0.38289012    -0.66000
O593        O  0.62312041  0.26829531  0.36574267    -0.78300
C594        C  0.62748165  0.20696845  0.32184900     0.85100
O595        O  0.61547311  0.22189480  0.33480793    -0.65500
Ni596      Ni  0.61134889  0.22538594  0.40931098     1.27400
Ni597      Ni  0.62714121  0.14880605  0.38678295     1.26100
H598        H  0.60475144  0.15297309  0.35853398     0.39700
O599        O  0.64118434  0.67312967  0.32539339    -0.80300
O600        O  0.63537537  0.64270534  0.41444964    -0.65000
O601        O  0.61962290  0.65963754  0.36093564    -1.11600
C602        C  0.62202350  0.78822319  0.37623532     1.06600
O603        O  0.61518549  0.68973209  0.42613091    -0.78200
O604        O  0.58801571  0.71169109  0.39657843    -0.65800
Ni605      Ni  0.63151639  0.62988844  0.34038352     1.34900
C606        C  0.58146061  0.71685487  0.37914982     0.85300
O607        O  0.62338861  0.59574365  0.38555144    -0.78700
O608        O  0.62224297  0.58431187  0.35319996    -0.89000
C609        C  0.62699573  0.66069325  0.42864291     0.84900
O610        O  0.65994736  0.62381749  0.35083109    -0.67200
O611        O  0.61296125  0.77540368  0.39155326    -0.86500
C612        C  0.66867372  0.63074122  0.36729124     0.85700
C613        C  0.62064264  0.57358317  0.37096400     1.07300
H614        H  0.64680194  0.70984761  0.39080720     0.39100
O615        O  0.63180690  0.70372705  0.38844094    -1.09100
O616        O  0.59447817  0.72202689  0.36501547    -0.65800
Ni617      Ni  0.62504815  0.71301122  0.36144632     1.26300
O618        O  0.65819712  0.64346788  0.38188642    -0.66000
O619        O  0.63046560  0.76649687  0.36346525    -0.78300
C620        C  0.62975360  0.70176136  0.32076364     0.85100
O621        O  0.61935991  0.71942589  0.33392539    -0.65500
Ni622      Ni  0.61456126  0.73006704  0.40714122     1.27400
Ni623      Ni  0.62788156  0.64975462  0.38739640     1.26100
H624        H  0.60428710  0.65559538  0.36017181     0.39700
O625        O  0.86153905  0.06010995  0.32585397    -0.80300
O626        O  0.86482614  0.09270185  0.41581986    -0.65000
O627        O  0.88067389  0.07677252  0.36208243    -1.11600
C628        C  0.87127491  0.94653541  0.37971502     1.06600
O629        O  0.88881762  0.04957116  0.42339498    -0.78200
O630        O  0.90835583  0.99908623  0.40008454    -0.65800
Ni631      Ni  0.86780833  0.10450876  0.34127557     1.34900
C632        C  0.91730839  0.00516114  0.38374759     0.85300
O633        O  0.87664841  0.14032223  0.38677867    -0.78700
O634        O  0.87361534  0.15141135  0.35443967    -0.89000
C635        C  0.87586342  0.07537768  0.42874737     0.84900
O636        O  0.83892054  0.10418241  0.35079323    -0.67200
O637        O  0.87185964  0.95806677  0.39742093    -0.86500
C638        C  0.83055254  0.10060925  0.36762411     0.85700
C639        C  0.87670374  0.16246940  0.37199043     1.07300
H640        H  0.85234601  0.02780647  0.38925664     0.39100
O641        O  0.86765019  0.03274963  0.38883935    -1.09100
O642        O  0.90711812  0.01699733  0.36876257    -0.65800
Ni643      Ni  0.87681006  0.02285087  0.36276867     1.26300
O644        O  0.84171275  0.09385395  0.38291417    -0.66000
O645        O  0.87288849  0.96862913  0.36490566    -0.78300
C646        C  0.87442802  0.03310787  0.32202730     0.85100
O647        O  0.88456202  0.01629085  0.33572823    -0.65500
Ni648      Ni  0.87984363  0.00469580  0.40975627     1.27400
Ni649      Ni  0.87200680  0.08653075  0.38847654     1.26100
H650        H  0.89589745  0.08213512  0.36136586     0.39700
O651        O  0.86098213  0.55345750  0.32484714    -0.80300
O652        O  0.86344465  0.59389795  0.41340716    -0.65000
O653        O  0.88084011  0.57474513  0.36029296    -1.11600
C654        C  0.87866337  0.44662592  0.38084507     1.06600
O655        O  0.88953839  0.55638144  0.42357101    -0.78200
O656        O  0.91394373  0.51513897  0.39931458    -0.65800
Ni657      Ni  0.86716623  0.59966448  0.33884385     1.34900
C658        C  0.92110982  0.51419229  0.38198968     0.85300
O659        O  0.87326026  0.64029293  0.38322294    -0.78700
O660        O  0.87235479  0.64809320  0.35057772    -0.89000
C661        C  0.87512597  0.58094363  0.42718499     0.84900
O662        O  0.83835718  0.60015560  0.34860955    -0.67200
O663        O  0.88311537  0.46032926  0.39766404    -0.86500
C664        C  0.83002780  0.59566471  0.36539822     0.85700
C665        C  0.87323472  0.66122064  0.36795109     1.07300
H666        H  0.85522008  0.52457168  0.39010486     0.39100
O667        O  0.87012015  0.53205751  0.38853763    -1.09100
O668        O  0.90895222  0.51585475  0.36695545    -0.65800
Ni669      Ni  0.87825183  0.52065014  0.36216553     1.26300
O670        O  0.84110073  0.58777068  0.38057037    -0.66000
O671        O  0.87513817  0.46681868  0.36562841    -0.78300
C672        C  0.87439215  0.52726490  0.32102377     0.85100
O673        O  0.88519126  0.51222083  0.33487122    -0.65500
Ni674      Ni  0.88569952  0.50944180  0.40955160     1.27400
Ni675      Ni  0.87155311  0.58603594  0.38641661     1.26100
H676        H  0.89591082  0.58115503  0.35953923     0.39700
O677        O  0.86081361  0.41290898  0.17519632    -0.80300
O678        O  0.86694551  0.37547320  0.08557249    -0.65000
O679        O  0.88109171  0.39268951  0.13963467    -1.11600
C680        C  0.87569306  0.52234573  0.12063486     1.06600
O681        O  0.89148915  0.41715476  0.07663955    -0.78200
O682        O  0.91276015  0.46249700  0.10148959    -0.65800
Ni683      Ni  0.86573202  0.36761453  0.15997408     1.34900
C684        C  0.92062618  0.45788517  0.11846440     0.85300
O685        O  0.87649669  0.32842134  0.11539049    -0.78700
O686        O  0.86934902  0.31958278  0.14723324    -0.89000
C687        C  0.87844371  0.39070493  0.07240588     0.84900
O688        O  0.83759414  0.37292460  0.14920413    -0.67200
O689        O  0.87841345  0.51032077  0.10319881    -0.86500
C690        C  0.83052465  0.37478356  0.13179920     0.85700
C691        C  0.87348676  0.30694805  0.13016274     1.07300
H692        H  0.85525528  0.44247409  0.11039766     0.39100
O693        O  0.87043995  0.43632926  0.11164257    -1.09100
O694        O  0.90905975  0.45086672  0.13338706    -0.65800
Ni695      Ni  0.87843941  0.44666306  0.13815691     1.26300
O696        O  0.84279449  0.37783923  0.11702390    -0.66000
O697        O  0.87532026  0.50058157  0.13554884    -0.78300
C698        C  0.87356382  0.44012565  0.17897109     0.85100
O699        O  0.88515095  0.45419115  0.16546538    -0.65500
Ni700      Ni  0.88442968  0.46258623  0.09094038     1.27400
Ni701      Ni  0.87342257  0.38243650  0.11291754     1.26100
H702        H  0.89604270  0.38613897  0.14128977     0.39700
O703        O  0.86170740  0.91419034  0.17818517    -0.80300
O704        O  0.86553732  0.87304164  0.08885583    -0.65000
O705        O  0.88082822  0.89218518  0.14250511    -1.11600
C706        C  0.87798561  0.02078852  0.12104103     1.06600
O707        O  0.89167166  0.91100464  0.07959277    -0.78200
O708        O  0.91415133  0.95661623  0.10371725    -0.65800
Ni709      Ni  0.86552448  0.86832925  0.16333770     1.34900
C710        C  0.92145233  0.95340525  0.12097680     0.85300
O711        O  0.87495393  0.82711177  0.11917978    -0.78700
O712        O  0.86787523  0.81957229  0.15115949    -0.89000
C713        C  0.87720538  0.88691716  0.07543182     0.84900
O714        O  0.83747159  0.87513933  0.15284753    -0.67200
O715        O  0.88105781  0.00727142  0.10395335    -0.86500
C716        C  0.83002608  0.87730846  0.13561656     0.85700
C717        C  0.87175399  0.80641932  0.13418711     1.07300
H718        H  0.85582330  0.94196840  0.11224415     0.39100
O719        O  0.87084160  0.93483648  0.11381689    -1.09100
O720        O  0.90937226  0.94870920  0.13575761    -0.65800
Ni721      Ni  0.87881615  0.94630443  0.14017819     1.26300
O722        O  0.84207644  0.87871612  0.12060714    -0.66000
O723        O  0.87663597  0.00031946  0.13644890    -0.78300
C724        C  0.87484832  0.94111693  0.18130813     0.85100
O725        O  0.88569766  0.95518442  0.16732515    -0.65500
Ni726      Ni  0.88592823  0.95819957  0.09278385     1.27400
Ni727      Ni  0.87270482  0.88097337  0.11599681     1.26100
H728        H  0.89568008  0.88513479  0.14405628     0.39700
O729        O  0.14024280  0.05492449  0.18109581    -0.80300
O730        O  0.13221923  0.09216399  0.09158068    -0.65000
O731        O  0.11876375  0.07345965  0.14570781    -1.11600
C732        C  0.12420895  0.94473080  0.12587803     1.06600
O733        O  0.10689380  0.05184184  0.08339400    -0.78200
O734        O  0.08560192  0.00873162  0.10875261    -0.65800
Ni735      Ni  0.13300150  0.10009423  0.16632708     1.34900
C736        C  0.07922824  0.01061398  0.12631383     0.85300
O737        O  0.12245338  0.13810014  0.12177594    -0.78700
O738        O  0.12663374  0.14786511  0.15404762    -0.89000
C739        C  0.12063359  0.07665266  0.07845192     0.84900
O740        O  0.16122844  0.10013458  0.15538177    -0.67200
O741        O  0.11891738  0.95728913  0.10902009    -0.86500
C742        C  0.16855302  0.09615138  0.13816760     0.85700
C743        C  0.12316680  0.15980187  0.13670281     1.07300
H744        H  0.14423510  0.02457785  0.11524278     0.39100
O745        O  0.12917459  0.03066895  0.11730490    -1.09100
O746        O  0.09193989  0.01365251  0.14079245    -0.65800
Ni747      Ni  0.12257232  0.01965892  0.14403318     1.26300
O748        O  0.15659471  0.08935521  0.12342126    -0.66000
O749        O  0.12656070  0.96589019  0.14093382    -0.78300
C750        C  0.12798412  0.02695542  0.18483608     0.85100
O751        O  0.11692435  0.01159999  0.17133496    -0.65500
Ni752      Ni  0.11338990  0.00568968  0.09716410     1.27400
Ni753      Ni  0.12600263  0.08442404  0.11902243     1.26100
H754        H  0.10364175  0.07888136  0.14720065     0.39700
O755        O  0.14082249  0.54740630  0.17642618    -0.80300
O756        O  0.13599835  0.59346376  0.08820114    -0.65000
O757        O  0.12069646  0.57241565  0.14181283    -1.11600
C758        C  0.12345198  0.44407448  0.12036228     1.06600
O759        O  0.11133292  0.55323122  0.07803914    -0.78200
O760        O  0.08791269  0.50861244  0.10158825    -0.65800
Ni761      Ni  0.13658698  0.59462357  0.16285728     1.34900
C762        C  0.08027641  0.51020336  0.11874835     0.85300
O763        O  0.12707451  0.63846541  0.11926182    -0.78700
O764        O  0.13372016  0.64405267  0.15147506    -0.89000
C765        C  0.12548662  0.57808817  0.07429177     0.84900
O766        O  0.16472684  0.58904415  0.15223492    -0.67200
O767        O  0.12072002  0.45751358  0.10320501    -0.86500
C768        C  0.17180426  0.58769572  0.13487673     0.85700
C769        C  0.13029941  0.65841625  0.13463269     1.07300
H770        H  0.14580881  0.52329991  0.11193109     0.39100
O771        O  0.13082081  0.53027089  0.11312020    -1.09100
O772        O  0.09180242  0.51492511  0.13402842    -0.65800
Ni773      Ni  0.12237634  0.51835949  0.13942287     1.26300
O774        O  0.15956781  0.58660372  0.11995185    -0.66000
O775        O  0.12479102  0.46451850  0.13576662    -0.78300
C776        C  0.12630954  0.52341511  0.18054703     0.85100
O777        O  0.11488808  0.50973582  0.16671928    -0.65500
Ni778      Ni  0.11651990  0.50648855  0.09167553     1.27400
Ni779      Ni  0.12891994  0.58445087  0.11542634     1.26100
H780        H  0.10580339  0.57968875  0.14346170     0.39700
O781        O  0.13992628  0.41463448  0.32684495    -0.80300
O782        O  0.13607849  0.37353283  0.41647072    -0.65000
O783        O  0.12056665  0.39270048  0.36265582    -1.11600
C784        C  0.12390911  0.52125902  0.38409120     1.06600
O785        O  0.10969081  0.41123808  0.42526338    -0.78200
O786        O  0.08751600  0.45815855  0.40158719    -0.65800
Ni787      Ni  0.13545572  0.36856732  0.34162576     1.34900
C788        C  0.08011789  0.45605663  0.38431451     0.85300
O789        O  0.12743748  0.32750375  0.38600419    -0.78700
O790        O  0.13209650  0.31964254  0.35365900    -0.89000
C791        C  0.12390640  0.38681954  0.42976025     0.84900
O792        O  0.16375531  0.37394166  0.35208928    -0.67200
O793        O  0.12085962  0.50755431  0.40114503    -0.86500
C794        C  0.17132169  0.37788766  0.36924206     0.85700
C795        C  0.12931350  0.30662146  0.37086657     1.07300
H796        H  0.14549921  0.44260257  0.39273184     0.39100
O797        O  0.13060823  0.43534729  0.39122344    -1.09100
O798        O  0.09197388  0.45030897  0.36943948    -0.65800
Ni799      Ni  0.12260327  0.44684753  0.36486109     1.26300
O800        O  0.15958574  0.38009422  0.38440836    -0.66000
O801        O  0.12508147  0.50087321  0.36860424    -0.78300
C802        C  0.12696171  0.44186559  0.32366224     0.85100
O803        O  0.11575843  0.45557989  0.33756239    -0.65500
Ni804      Ni  0.11578673  0.45856748  0.41231996     1.27400
Ni805      Ni  0.12902521  0.38146338  0.38916897     1.26100
H806        H  0.10556399  0.38578351  0.36129368     0.39700
O807        O  0.13608021  0.91228308  0.32957134    -0.80300
O808        O  0.13426461  0.87566559  0.41947794    -0.65000
O809        O  0.11746263  0.89237564  0.36585013    -1.11600
C810        C  0.12107741  0.02217176  0.38491898     1.06600
O811        O  0.10895389  0.91542911  0.42883703    -0.78200
O812        O  0.08595599  0.95965173  0.40466105    -0.65800
Ni813      Ni  0.13171812  0.86707567  0.34487093     1.34900
C814        C  0.07783975  0.95649231  0.38769201     0.85300
O815        O  0.12381175  0.82801373  0.38991860    -0.78700
O816        O  0.12877425  0.81905631  0.35766492    -0.89000
C817        C  0.12296083  0.89048226  0.43296156     0.84900
O818        O  0.16031927  0.87183060  0.35446591    -0.67200
O819        O  0.11894130  0.00972621  0.40232899    -0.86500
C820        C  0.16834733  0.87446024  0.37149093     0.85700
C821        C  0.12607315  0.80662109  0.37498405     1.07300
H822        H  0.14362767  0.94307595  0.39452831     0.39100
O823        O  0.12867536  0.93633722  0.39353085    -1.09100
O824        O  0.08926365  0.95053068  0.37255476    -0.65800
Ni825      Ni  0.11978963  0.94657435  0.36721542     1.26300
O826        O  0.15693006  0.87859682  0.38679619    -0.66000
O827        O  0.12241411  0.00071283  0.36989181    -0.78300
C828        C  0.12308862  0.93933836  0.32617877     0.85100
O829        O  0.11227006  0.95403570  0.34003734    -0.65500
Ni830      Ni  0.11455203  0.96145819  0.41457220     1.27400
Ni831      Ni  0.12643069  0.88225552  0.39228068     1.26100
H832        H  0.10218612  0.88552926  0.36483717     0.39700
C833        C  0.12623479  0.62614318  0.39730390    -0.13800
C834        C  0.12179165  0.64315071  0.37925230     0.16600
C835        C  0.11938169  0.62010873  0.36254164     0.02900
C836        C  0.12107887  0.58059560  0.36419334    -0.12300
C837        C  0.12514305  0.56329818  0.38236678    -0.03300
C838        C  0.12821396  0.58677882  0.39900883     0.02200
C839        C  0.12191795  0.68513376  0.37791655     0.09000
N840        N  0.11440239  0.63642539  0.34393692     0.65400
H841        H  0.11841625  0.56338296  0.35128624     0.18300
N842        N  0.13405658  0.57134815  0.41764796     0.75800
H843        H  0.12890748  0.64371598  0.41008876     0.09800
C844        C  0.10804964  0.70781846  0.38936714     0.03500
C845        C  0.11026062  0.74748053  0.38913043    -0.05200
C846        C  0.12584130  0.76491704  0.37734586    -0.23600
C847        C  0.14002123  0.74201620  0.36630705     0.12700
C848        C  0.13779618  0.70259061  0.36655454    -0.12800
N849        N  0.09117570  0.69100466  0.40067047     0.64400
H850        H  0.09913819  0.76475720  0.39745285     0.12300
N851        N  0.15740635  0.75837741  0.35547247     0.61000
H852        H  0.14907618  0.68536400  0.35836971     0.08400
O853        O  0.15216075  0.55561657  0.41987987    -0.40400
O854        O  0.12229547  0.57730035  0.43235722    -0.39600
O855        O  0.12747941  0.63314840  0.32994568    -0.39600
O856        O  0.09599133  0.65043631  0.34089684    -0.37300
O857        O  0.17186400  0.77692505  0.36427679    -0.38200
O858        O  0.15963901  0.75078639  0.33755532    -0.34400
O859        O  0.08856674  0.70043556  0.41831008    -0.35800
O860        O  0.07780595  0.66897567  0.39262261    -0.40100
C861        C  0.13626374  0.20655856  0.39061312    -0.13800
C862        C  0.12574333  0.18519133  0.37617305     0.16600
C863        C  0.11601421  0.20387284  0.36018892     0.02900
C864        C  0.11771546  0.24338771  0.35858423    -0.12300
C865        C  0.12817005  0.26490614  0.37307867    -0.03300
C866        C  0.13752957  0.24610299  0.38921453     0.02200
C867        C  0.12498573  0.14341478  0.37814677     0.09000
N868        N  0.10351967  0.18334141  0.34605624     0.65400
H869        H  0.11013357  0.25752376  0.34629218     0.18300
N870        N  0.14929732  0.26656906  0.40377054     0.75800
H871        H  0.14381616  0.19234815  0.40289945     0.09800
C872        C  0.13562892  0.11919508  0.36488347     0.03500
C873        C  0.13383349  0.07974960  0.36699929    -0.05200
C874        C  0.12176402  0.06391739  0.38229330    -0.23600
C875        C  0.11097099  0.08846827  0.39541691     0.12700
C876        C  0.11288174  0.12774005  0.39333905    -0.12800
N877        N  0.14908437  0.13424043  0.34980160     0.64400
H878        H  0.14265540  0.06147022  0.35714358     0.12300
N879        N  0.09734702  0.07403917  0.41052424     0.61000
H880        H  0.10438986  0.14620576  0.40337585     0.08400
O881        O  0.16884831  0.27457662  0.40093025    -0.40400
O882        O  0.14112292  0.27190466  0.42041669    -0.39600
O883        O  0.08809435  0.16271449  0.35160721    -0.39600
O884        O  0.10596667  0.18969384  0.32803527    -0.37300
O885        O  0.10180885  0.08051019  0.42823020    -0.38200
O886        O  0.07969338  0.05842189  0.40613978    -0.34400
O887        O  0.16542161  0.15369446  0.35429463    -0.35800
O888        O  0.14637809  0.12393749  0.33228965    -0.40100
C889        C  0.10793314  0.47590854  0.22888339    -0.13800
C890        C  0.12059045  0.49541346  0.24269648     0.16600
C891        C  0.13432150  0.52438386  0.23599803     0.02900
C892        C  0.13604339  0.53185219  0.21588146    -0.12300
C893        C  0.12382888  0.51195100  0.20174466    -0.03300
C894        C  0.10928939  0.48390119  0.20861563     0.02200
C895        C  0.12161444  0.48249063  0.26361347     0.09000
N896        N  0.14628459  0.54715905  0.24958020     0.65400
H897        H  0.14681554  0.55433929  0.21139159     0.18300
N898        N  0.09595235  0.46285433  0.19542351     0.75800
H899        H  0.09747265  0.45328910  0.23379475     0.09800
C900        C  0.10384195  0.48432025  0.27642352     0.03500
C901        C  0.10598243  0.47248873  0.29608758    -0.05200
C902        C  0.12556411  0.45777267  0.30329863    -0.23600
C903        C  0.14328399  0.45594034  0.29029291     0.12700
C904        C  0.14119806  0.46845417  0.27088928    -0.12800
N905        N  0.08357779  0.49843914  0.26971411     0.64400
H906        H  0.09209602  0.47391795  0.30559891     0.12300
N907        N  0.16375452  0.44195058  0.29657570     0.61000
H908        H  0.15505088  0.46685694  0.26130920     0.08400
O909        O  0.07603961  0.46003472  0.19879223    -0.40400
O910        O  0.10448622  0.44119897  0.18296231    -0.39600
O911        O  0.16605093  0.55345622  0.24680492    -0.39600
O912        O  0.13666184  0.56393400  0.26333014    -0.37300
O913        O  0.16890706  0.40814731  0.29278772    -0.38200
O914        O  0.17814051  0.46512529  0.30177635    -0.34400
O915        O  0.06890087  0.47557240  0.26482546    -0.35800
O916        O  0.07939873  0.53331872  0.27110418    -0.40100
C917        C  0.13280014  0.84093189  0.11325618    -0.13800
C918        C  0.12616079  0.82293954  0.13050587     0.16600
C919        C  0.12065965  0.84551319  0.14686761     0.02900
C920        C  0.12133614  0.88519963  0.14545919    -0.12300
C921        C  0.12698451  0.90310144  0.12787615    -0.03300
C922        C  0.13324686  0.88046622  0.11178612     0.02200
C923        C  0.12658944  0.78071079  0.13149828     0.09000
N924        N  0.11349529  0.82864715  0.16474652     0.65400
H925        H  0.11631349  0.90205880  0.15788779     0.18300
N926        N  0.14072516  0.89719838  0.09400171     0.75800
H927        H  0.13807541  0.82414454  0.10089181     0.09800
C928        C  0.11703776  0.75785402  0.11684145     0.03500
C929        C  0.11902701  0.71823811  0.11772562    -0.05200
C930        C  0.13003540  0.70055074  0.13320620    -0.23600
C931        C  0.13999733  0.72363938  0.14761624     0.12700
C932        C  0.13815003  0.76310557  0.14660554    -0.12800
N933        N  0.10470427  0.77434972  0.10129390     0.64400
H934        H  0.11122220  0.70119633  0.10659103     0.12300
N935        N  0.15279636  0.70768014  0.16299725     0.61000
H936        H  0.14638039  0.78020700  0.15746435     0.08400
O937        O  0.13044116  0.89207227  0.07827500    -0.40400
O938        O  0.15878121  0.91359307  0.09361229    -0.39600
O939        O  0.12232208  0.83759692  0.18074583    -0.39600
O940        O  0.09714419  0.80740851  0.16479405    -0.37300
O941        O  0.17064735  0.69235949  0.15908322    -0.38200
O942        O  0.14757511  0.71298083  0.18061277    -0.34400
O943        O  0.10879064  0.76590818  0.08375289    -0.35800
O944        O  0.08863821  0.79495751  0.10511716    -0.40100
C945        C  0.11479854  0.26517509  0.14604587    -0.13800
C946        C  0.12085205  0.28073848  0.12803374     0.16600
C947        C  0.12675298  0.25627051  0.11257192     0.02900
C948        C  0.12620339  0.21693056  0.11545363    -0.12300
C949        C  0.12074633  0.20129180  0.13368462    -0.03300
C950        C  0.11480433  0.22599929  0.14904400     0.02200
C951        C  0.12104659  0.32260369  0.12591917     0.09000
N952        N  0.13436320  0.27084103  0.09426214     0.65400
H953        H  0.13135802  0.19856572  0.10369055     0.18300
N954        N  0.10865507  0.21189721  0.16779964     0.75800
H955        H  0.11006658  0.28367160  0.15794393     0.09800
C956        C  0.10957951  0.34132295  0.11086817     0.03500
C957        C  0.11154790  0.38070568  0.10895768    -0.05200
C958        C  0.12387111  0.40223451  0.12221861    -0.23600
C959        C  0.13486341  0.38351811  0.13750528     0.12700
C960        C  0.13334852  0.34404416  0.13917600    -0.12800
N961        N  0.09521951  0.32119778  0.09799644     0.64400
H962        H  0.10243381  0.39487556  0.09756580     0.12300
N963        N  0.14821761  0.40387958  0.15100323     0.61000
H964        H  0.14229026  0.32983664  0.15067187     0.08400
O965        O  0.08923204  0.20344006  0.17096395    -0.40400
O966        O  0.12167166  0.21415239  0.18196262    -0.39600
O967        O  0.14924138  0.29519813  0.09393312    -0.39600
O968        O  0.12774817  0.25672676  0.07838116    -0.37300
O969        O  0.14600636  0.39893531  0.16916667    -0.38200
O970        O  0.16388306  0.42318306  0.14479440    -0.34400
O971        O  0.08284703  0.29595124  0.10465480    -0.35800
O972        O  0.09312379  0.33148453  0.08040679    -0.40100
C973        C  0.11441373  0.00196666  0.28070708    -0.13800
C974        C  0.12071592  0.97709514  0.26573535     0.16600
C975        C  0.12686848  0.93997818  0.27067454     0.02900
C976        C  0.12722122  0.92854268  0.29029968    -0.12300
C977        C  0.12149419  0.95348429  0.30554495    -0.03300
C978        C  0.11480122  0.99061648  0.30050598     0.02200
C979        C  0.12216685  0.99051736  0.24511730     0.09000
N980        N  0.13305921  0.91364497  0.25583876     0.65400
H981        H  0.13211318  0.89976154  0.29359675     0.18300
N982        N  0.10973057  0.01787353  0.31526170     0.75800
H983        H  0.10987637  0.03075889  0.27704619     0.09800
C984        C  0.10471226  0.98701752  0.23203245     0.03500
C985        C  0.10713906  0.99742964  0.21228852    -0.05200
C986        C  0.12671872  0.01223082  0.20529787    -0.23600
C987        C  0.14425715  0.01531491  0.21848065     0.12700
C988        C  0.14184389  0.00446516  0.23813093    -0.12800
N989        N  0.08432333  0.97354036  0.23872007     0.64400
H990        H  0.09339259  0.99520682  0.20255260     0.12300
N991        N  0.16488929  0.02799322  0.21196401     0.61000
H992        H  0.15553436  0.00638915  0.24795348     0.08400
O993        O  0.12437776  0.02949430  0.32658943    -0.40400
O994        O  0.09192348  0.03509962  0.31473249    -0.39600
O995        O  0.15273096  0.90883212  0.25197707    -0.39600
O996        O  0.11914132  0.89199123  0.24832903    -0.37300
O997        O  0.17214470  0.05952507  0.21765893    -0.38200
O998        O  0.17688869  0.00580210  0.20246195    -0.34400
O999        O  0.07239240  0.99486945  0.24879843    -0.35800
O1000       O  0.07734441  0.94182333  0.23302260    -0.40100
C1001       C  0.98138087  0.96533046  0.11156188    -0.13800
C1002       C  0.98888574  0.97665416  0.13001681     0.16600
C1003       C  0.97442482  0.97726964  0.14594697     0.02900
C1004       C  0.95281425  0.96695546  0.14288652    -0.12300
C1005       C  0.94506347  0.95738859  0.12414574    -0.03300
C1006       C  0.95981606  0.95595317  0.10844953     0.02200
C1007       C  0.01177932  0.98847906  0.13163876     0.09000
N1008       N  0.98099818  0.99023567  0.16495092     0.65400
H1009       H  0.94172859  0.96892531  0.15502758     0.18300
N1010       N  0.95320796  0.94553288  0.08913873     0.75800
H1011       H  0.99240432  0.96415562  0.09930517     0.09800
C1012       C  0.02656975  0.97117686  0.14467533     0.03500
C1013       C  0.04842498  0.98153801  0.14395818    -0.05200
C1014       C  0.05588356  0.00739061  0.12991815    -0.23600
C1015       C  0.04095493  0.02576808  0.11763531     0.12700
C1016       C  0.01915679  0.01642410  0.11868259    -0.12800
N1017       N  0.02009088  0.94129899  0.15762378     0.64400
H1018       H  0.05989697  0.96695395  0.15327216     0.12300
N1019       N  0.04777907  0.05373445  0.10385818     0.61000
H1020       H  0.00791775  0.03044469  0.10890840     0.08400
O1021       O  0.95030985  0.91108369  0.08497088    -0.40400
O1022       O  0.95311281  0.97001121  0.07568592    -0.39600
O1023       O  0.99154160  0.02062428  0.16672523    -0.39600
O1024       O  0.97424741  0.97366790  0.18010356    -0.37300
O1025       O  0.04636352  0.04715703  0.08575914    -0.38200
O1026       O  0.05265509  0.08655537  0.10969993    -0.34400
O1027       O  0.00912033  0.91381194  0.15124530    -0.35800
O1028       O  0.02744713  0.94003203  0.17484454    -0.40100
C1029       C  0.88478700  0.70607526  0.11776478    -0.13800
C1030       C  0.86896954  0.68541676  0.12781996     0.16600
C1031       C  0.85439951  0.70461773  0.14001799     0.02900
C1032       C  0.85596403  0.74392914  0.14214614    -0.12300
C1033       C  0.87169161  0.76477367  0.13203835    -0.03300
C1034       C  0.88643652  0.74553370  0.11988352     0.02200
C1035       C  0.86876688  0.64356659  0.12629314     0.09000
N1036       N  0.83747274  0.68466439  0.14974356     0.65400
H1037       H  0.84436891  0.75842680  0.15131502     0.18300
N1038       N  0.90386357  0.76519029  0.11061597     0.75800
H1039       H  0.89640448  0.69119963  0.10878893     0.09800
C1040       C  0.86609395  0.62562365  0.10809602     0.03500
C1041       C  0.86828443  0.58629092  0.10671234    -0.05200
C1042       C  0.87293996  0.56394617  0.12327065    -0.23600
C1043       C  0.87521699  0.58210750  0.14163918     0.12700
C1044       C  0.87299364  0.62157719  0.14296461    -0.12800
N1045       N  0.86085445  0.64703620  0.09094575     0.64400
H1046       H  0.86609835  0.57319123  0.09251419     0.12300
N1047       N  0.88103836  0.56140892  0.15884597     0.61000
H1048       H  0.87546023  0.63533196  0.15696855     0.08400
O1049       O  0.90897539  0.75728455  0.09323666    -0.40400
O1050       O  0.91592474  0.78668030  0.12054944    -0.39600
O1051       O  0.83604623  0.68579607  0.16813909    -0.39600
O1052       O  0.82289844  0.66858123  0.13987115    -0.37300
O1053       O  0.86801252  0.55920861  0.17293158    -0.38200
O1054       O  0.90023493  0.55049657  0.16115838    -0.34400
O1055       O  0.87242862  0.64441162  0.07586482    -0.35800
O1056       O  0.84387668  0.66670392  0.09042476    -0.40100
C1057       C  0.87996700  0.12226073  0.14013337    -0.13800
C1058       C  0.87279789  0.14273739  0.12370638     0.16600
C1059       C  0.86726745  0.12280724  0.10653984     0.02900
C1060       C  0.86906035  0.08325884  0.10608801    -0.12300
C1061       C  0.87595824  0.06264327  0.12258665    -0.03300
C1062       C  0.88146710  0.08264289  0.13976259     0.02200
C1063       C  0.87196905  0.18488232  0.12463011     0.09000
N1064       N  0.85934145  0.14220566  0.08959477     0.65400
H1065       H  0.86460392  0.06852283  0.09277250     0.18300
N1066       N  0.88985089  0.06344033  0.15653520     0.75800
H1067       H  0.88487326  0.13722721  0.15324997     0.09800
C1068       C  0.86151641  0.20352391  0.14017758     0.03500
C1069       C  0.86283286  0.24296486  0.14174579    -0.05200
C1070       C  0.87385031  0.26498005  0.12781434    -0.23600
C1071       C  0.88388792  0.24635441  0.11194134     0.12700
C1072       C  0.88293329  0.20663817  0.11058527    -0.12800
N1073       N  0.84897471  0.18291309  0.15419645     0.64400
H1074       H  0.85445111  0.25656716  0.15372190     0.12300
N1075       N  0.89571654  0.26696233  0.09748367     0.61000
H1076       H  0.89141352  0.19260349  0.09880108     0.08400
O1077       O  0.87818553  0.05890158  0.17143188    -0.40400
O1078       O  0.90958295  0.05496150  0.15729335    -0.39600
O1079       O  0.86852868  0.13784229  0.07330630    -0.39600
O1080       O  0.84212578  0.16114266  0.09053026    -0.37300
O1081       O  0.91220778  0.28563935  0.10238621    -0.38200
O1082       O  0.89145505  0.26238761  0.07957829    -0.34400
O1083       O  0.85065861  0.19034891  0.17219514    -0.35800
O1084       O  0.83489936  0.15952342  0.14852144    -0.40100
C1085       C  0.02627289  0.46936268  0.13383766    -0.13800
C1086       C  0.01206777  0.49007290  0.12200956     0.16600
C1087       C  0.02024222  0.51922911  0.10993595     0.02900
C1088       C  0.04256106  0.52569398  0.10929363    -0.12300
C1089       C  0.05682083  0.50441903  0.12086554    -0.03300
C1090       C  0.04854330  0.47579732  0.13317978     0.02200
C1091       C  0.98904781  0.47868410  0.12135979     0.09000
N1092       N  0.00610599  0.54252447  0.09841083     0.65400
H1093       H  0.04884137  0.54767367  0.09982811     0.18300
N1094       N  0.06257564  0.45067631  0.14364953     0.75800
H1095       H  0.02010403  0.44644864  0.14276237     0.09800
C1096       C  0.97930897  0.46588058  0.10387794     0.03500
C1097       C  0.95715250  0.45835666  0.10357840    -0.05200
C1098       C  0.94441821  0.46193938  0.12049141    -0.23600
C1099       C  0.95456556  0.47250894  0.13823654     0.12700
C1100       C  0.97663678  0.48115396  0.13842007    -0.12800
N1101       N  0.99169785  0.45986900  0.08643057     0.64400
H1102       H  0.94984855  0.44928610  0.08994662     0.12300
N1103       N  0.94268939  0.47594792  0.15604069     0.61000
H1104       H  0.98411270  0.49036569  0.15195316     0.08400
O1105       O  0.07660367  0.43199198  0.13445044    -0.40400
O1106       O  0.05811922  0.44133906  0.16097817    -0.39600
O1107       O  0.98913189  0.55593724  0.10582230    -0.39600
O1108       O  0.01145541  0.55244970  0.08136702    -0.37300
O1109       O  0.94169318  0.50761305  0.16456388    -0.38200
O1110       O  0.93719356  0.44642720  0.16516250    -0.34400
O1111       O  0.00929628  0.44199327  0.08723865    -0.35800
O1112       O  0.98393153  0.46846635  0.06993056    -0.40100
C1113       C  0.02571235  0.48656854  0.36355479    -0.13800
C1114       C  0.01219225  0.48030296  0.37964115     0.16600
C1115       C  0.02071758  0.46267495  0.39655308     0.02900
C1116       C  0.04278610  0.45436004  0.39749152    -0.12300
C1117       C  0.05657600  0.46200307  0.38170756    -0.03300
C1118       C  0.04773086  0.47771537  0.36443655     0.02200
C1119       C  0.98944391  0.49354664  0.37882322     0.09000
N1120       N  0.00717497  0.45260130  0.41274376     0.65400
H1121       H  0.04919778  0.44147585  0.41066357     0.18300
N1122       N  0.06104175  0.48705684  0.34810853     0.75800
H1123       H  0.01930046  0.49990625  0.35050149     0.09800
C1124       C  0.98098378  0.51865981  0.39299491     0.03500
C1125       C  0.95870478  0.52558837  0.39344778    -0.05200
C1126       C  0.94472630  0.50935231  0.37957741    -0.23600
C1127       C  0.95350907  0.48631770  0.36468290     0.12700
C1128       C  0.97569307  0.47877121  0.36442264    -0.12800
N1129       N  0.99478457  0.53745049  0.40685357     0.64400
H1130       H  0.95223043  0.54402228  0.40466488     0.12300
N1131       N  0.94001731  0.46813701  0.35053421     0.61000
H1132       H  0.98205674  0.45957253  0.35349371     0.08400
O1133       O  0.07297456  0.51597843  0.34879069    -0.40400
O1134       O  0.05877909  0.46941540  0.33218423    -0.39600
O1135       O  0.98935347  0.43634809  0.40976107    -0.39600
O1136       O  0.01400489  0.45608334  0.43006302    -0.37300
O1137       O  0.94336476  0.47350204  0.33255761    -0.38200
O1138       O  0.92731352  0.44218842  0.35581288    -0.34400
O1139       O  0.01251722  0.55134507  0.40140276    -0.35800
O1140       O  0.98836095  0.54358123  0.42406924    -0.40100
C1141       C  0.88679725  0.46944189  0.27446779    -0.13800
C1142       C  0.87928934  0.49394736  0.25977480     0.16600
C1143       C  0.87094747  0.52944459  0.26526881     0.02900
C1144       C  0.86972443  0.53945201  0.28513076    -0.12300
C1145       C  0.87667307  0.51466105  0.30008901    -0.03300
C1146       C  0.88564419  0.47934840  0.29444718     0.02200
C1147       C  0.87837163  0.48075775  0.23900696     0.09000
N1148       N  0.86288641  0.55511177  0.25083349     0.65400
H1149       H  0.86306046  0.56690075  0.28883715     0.18300
N1150       N  0.89273582  0.45238816  0.30868910     0.75800
H1151       H  0.89302752  0.44186351  0.27040441     0.09800
C1152       C  0.89277496  0.49385482  0.22454357     0.03500
C1153       C  0.89051692  0.48154208  0.20498384    -0.05200
C1154       C  0.87431117  0.45565429  0.19946922    -0.23600
C1155       C  0.85973886  0.44321268  0.21413258     0.12700
C1156       C  0.86197831  0.45568445  0.23352072    -0.12800
N1157       N  0.91024891  0.51845372  0.22963124     0.64400
H1158       H  0.90201636  0.49126931  0.19420974     0.12300
N1159       N  0.84233615  0.41810836  0.20966863     0.61000
H1160       H  0.85060034  0.44594637  0.24441400     0.08400
O1161       O  0.91131676  0.43814540  0.30731998    -0.40400
O1162       O  0.87916694  0.43720354  0.31992345    -0.39600
O1163       O  0.84353613  0.55273167  0.24527425    -0.39600
O1164       O  0.87410673  0.58318130  0.24570170    -0.37300
O1165       O  0.84324774  0.38392964  0.21502389    -0.38200
O1166       O  0.82494155  0.43121334  0.20287510    -0.34400
O1167       O  0.92363524  0.50850373  0.24257837    -0.35800
O1168       O  0.91385642  0.54777645  0.21960260    -0.40100
C1169       C  0.87714159  0.84614577  0.35951519    -0.13800
C1170       C  0.86718439  0.82484368  0.37428903     0.16600
C1171       C  0.85777473  0.84380637  0.39024317     0.02900
C1172       C  0.85896483  0.88339841  0.39135735    -0.12300
C1173       C  0.86919696  0.90494462  0.37673761    -0.03300
C1174       C  0.87845145  0.88582186  0.36057686     0.02200
C1175       C  0.86791074  0.78277610  0.37321033     0.09000
N1176       N  0.84668027  0.82330834  0.40524720     0.65400
H1177       H  0.85164957  0.89746691  0.40376469     0.18300
N1178       N  0.89042383  0.90556038  0.34580985     0.75800
H1179       H  0.88485384  0.83159294  0.34745766     0.09800
C1180       C  0.86024595  0.76359649  0.35653806     0.03500
C1181       C  0.86303786  0.72441582  0.35496196    -0.05200
C1182       C  0.87280529  0.70318941  0.37000116    -0.23600
C1183       C  0.88031085  0.72237644  0.38683429     0.12700
C1184       C  0.87781850  0.76187912  0.38827621    -0.12800
N1185       N  0.84887823  0.78339677  0.34140144     0.64400
H1186       H  0.85667140  0.71031796  0.34211062     0.12300
N1187       N  0.89136849  0.70255312  0.40210327     0.61000
H1188       H  0.88421772  0.77648159  0.40096788     0.08400
O1189       O  0.88837262  0.89608132  0.32809860    -0.40400
O1190       O  0.90586479  0.92689328  0.35064758    -0.39600
O1191       O  0.85047246  0.83029510  0.42303183    -0.39600
O1192       O  0.83189422  0.80030736  0.40078083    -0.37300
O1193       O  0.90979624  0.68875292  0.39896438    -0.38200
O1194       O  0.88387800  0.70252896  0.41923990    -0.34400
O1195       O  0.85425867  0.77917957  0.32374976    -0.35800
O1196       O  0.83230726  0.80252944  0.34549265    -0.40100
C1197       C  0.86319568  0.34523139  0.36801218    -0.13800
C1198       C  0.87889740  0.32504174  0.37849338     0.16600
C1199       C  0.89472995  0.34481172  0.38906679     0.02900
C1200       C  0.89437837  0.38438170  0.38946002    -0.12300
C1201       C  0.87845356  0.40486703  0.37931087    -0.03300
C1202       C  0.86276716  0.38499593  0.36841550     0.02200
C1203       C  0.87911295  0.28329766  0.37770388     0.09000
N1204       N  0.91144056  0.32497623  0.39920667     0.65400
H1205       H  0.90673430  0.39922756  0.39766629     0.18300
N1206       N  0.84563837  0.40458658  0.35871108     0.75800
H1207       H  0.85099712  0.32999147  0.35981568     0.09800
C1208       C  0.86852264  0.26126068  0.39188716     0.03500
C1209       C  0.86895699  0.22162240  0.39054167    -0.05200
C1210       C  0.87964836  0.20362246  0.37502916    -0.23600
C1211       C  0.89070392  0.22594570  0.36112350     0.12700
C1212       C  0.89027349  0.26546310  0.36255201    -0.12800
N1213       N  0.85650015  0.27885498  0.40718737     0.64400
H1214       H  0.86004125  0.20497839  0.40108772     0.12300
N1215       N  0.90262676  0.20882929  0.34558210     0.61000
H1216       H  0.89872597  0.28237092  0.35179543     0.08400
O1217       O  0.83116385  0.42054220  0.36868385    -0.40400
O1218       O  0.84305859  0.40076930  0.34050730    -0.39600
O1219       O  0.92957504  0.32063041  0.39123014    -0.39600
O1220       O  0.90901584  0.31618736  0.41694567    -0.37300
O1221       O  0.89741094  0.21514301  0.32803028    -0.38200
O1222       O  0.91980996  0.19111011  0.34932293    -0.34400
O1223       O  0.83669544  0.28547380  0.40477807    -0.35800
O1224       O  0.86481718  0.28273250  0.42392332    -0.40100
C1225       C  0.02142653  0.97701897  0.36728175    -0.13800
C1226       C  0.00960427  0.98126941  0.38461500     0.16600
C1227       C  0.02006658  0.97562958  0.40269333     0.02900
C1228       C  0.04185783  0.96558264  0.40314833    -0.12300
C1229       C  0.05401075  0.96180875  0.38586940    -0.03300
C1230       C  0.04339039  0.96726264  0.36769129     0.02200
C1231       C  0.98594102  0.98783313  0.38369560     0.09000
N1232       N  0.00892837  0.98135600  0.42077741     0.65400
H1233       H  0.04945024  0.96200607  0.41731407     0.18300
N1234       N  0.05450996  0.96310831  0.34951707     0.75800
H1235       H  0.01340720  0.98037966  0.35329024     0.09800
C1236       C  0.97684693  0.01885576  0.37357117     0.03500
C1237       C  0.95433540  0.02314566  0.37275716    -0.05200
C1238       C  0.94072053  0.99754645  0.38243308    -0.23600
C1239       C  0.94988188  0.96615379  0.39225235     0.12700
C1240       C  0.97224731  0.96161703  0.39273821    -0.12800
N1241       N  0.99028164  0.04739089  0.36514104     0.64400
H1242       H  0.94753553  0.04765737  0.36545727     0.12300
N1243       N  0.93664552  0.93809646  0.40142396     0.61000
H1244       H  0.97899842  0.93707949  0.40005879     0.08400
O1245       O  0.05543559  0.99065614  0.33778793    -0.40400
O1246       O  0.05997083  0.93052073  0.34375305    -0.39600
O1247       O  0.00895624  0.95575251  0.43366035    -0.39600
O1248       O  0.00068110  0.01320343  0.42458236    -0.37300
O1249       O  0.92358692  0.91887888  0.39130702    -0.38200
O1250       O  0.93962233  0.92969236  0.41916718    -0.34400
O1251       O  0.98865243  0.05520822  0.34719216    -0.35800
O1252       O  0.00206761  0.06758200  0.37601873    -0.40100
C1253       C  0.87585775  0.03378553  0.26623894    -0.13800
C1254       C  0.87805194  0.99520562  0.26189821     0.16600
C1255       C  0.87981996  0.96898330  0.27746309     0.02900
C1256       C  0.87906122  0.98177063  0.29695814    -0.12300
C1257       C  0.87654109  0.02039515  0.30132562    -0.03300
C1258       C  0.87509722  0.04653676  0.28566195     0.02200
C1259       C  0.87690341  0.98271924  0.24108461     0.09000
N1260       N  0.88242504  0.92934942  0.27367633     0.65400
H1261       H  0.88016007  0.96137391  0.30873919     0.18300
N1262       N  0.87325649  0.08632432  0.28923375     0.75800
H1263       H  0.87444897  0.05413674  0.25443476     0.09800
C1264       C  0.85917169  0.96179663  0.23401994     0.03500
C1265       C  0.85910327  0.94882958  0.21461678    -0.05200
C1266       C  0.87616045  0.95673850  0.20166702    -0.23600
C1267       C  0.89379779  0.97834356  0.20874072     0.12700
C1268       C  0.89381353  0.99141261  0.22824280    -0.12800
N1269       N  0.84082300  0.95443575  0.24617823     0.64400
H1270       H  0.84523225  0.93298879  0.20952461     0.12300
N1271       N  0.91233357  0.98543304  0.19684827     0.61000
H1272       H  0.90752519  0.00729906  0.23365597     0.08400
O1273       O  0.85625811  0.10366728  0.28445881    -0.40400
O1274       O  0.88950535  0.10485637  0.29487782    -0.39600
O1275       O  0.89849537  0.91776702  0.26412084    -0.39600
O1276       O  0.86998869  0.90563180  0.28159410    -0.37300
O1277       O  0.92068992  0.01802962  0.19661748    -0.38200
O1278       O  0.92264262  0.95793169  0.18968048    -0.34400
O1279       O  0.83222209  0.98103561  0.25572578    -0.35800
O1280       O  0.83166272  0.92252485  0.24560856    -0.40100
C1281       C  0.72485713  0.58937605  0.36021628    -0.13800
C1282       C  0.73739292  0.61336393  0.37190394     0.16600
C1283       C  0.72725945  0.64230472  0.38268242     0.02900
C1284       C  0.70480463  0.64699527  0.38152826    -0.12300
C1285       C  0.69219709  0.62350373  0.36943772    -0.03300
C1286       C  0.70247572  0.59401590  0.35895220     0.02200
C1287       C  0.76116320  0.60966522  0.37123597     0.09000
N1288       N  0.73969463  0.66790461  0.39430301     0.65400
H1289       H  0.69730807  0.66985050  0.38961975     0.18300
N1290       N  0.69036519  0.56801591  0.34724299     0.75800
H1291       H  0.73255217  0.56704265  0.35188497     0.09800
C1292       C  0.77248680  0.58500531  0.38378051     0.03500
C1293       C  0.79491503  0.58092865  0.38189590    -0.05200
C1294       C  0.80631087  0.60075241  0.36737123    -0.23600
C1295       C  0.79478620  0.62575903  0.35495959     0.12700
C1296       C  0.77246592  0.62982963  0.35696437    -0.12800
N1297       N  0.76133061  0.56342922  0.39822141     0.64400
H1298       H  0.80336766  0.56167266  0.39158816     0.12300
N1299       N  0.80559108  0.64832249  0.34067388     0.61000
H1300       H  0.76386160  0.64893668  0.34729361     0.08400
O1301       O  0.67913022  0.54275433  0.35536365    -0.40400
O1302       O  0.69291522  0.56737742  0.32894313    -0.39600
O1303       O  0.74564426  0.69917490  0.38719905    -0.39600
O1304       O  0.74251558  0.66133263  0.41226345    -0.37300
O1305       O  0.80340360  0.64080783  0.32273500    -0.38200
O1306       O  0.81476243  0.67866110  0.34578997    -0.34400
O1307       O  0.75543182  0.53002284  0.39440263    -0.35800
O1308       O  0.75998319  0.57573914  0.41549841    -0.40100
C1309       C  0.63608447  0.88949046  0.36084627    -0.13800
C1310       C  0.62111219  0.91032303  0.37181954     0.16600
C1311       C  0.60585606  0.89094821  0.38323532     0.02900
C1312       C  0.60645837  0.85136142  0.38419393    -0.12300
C1313       C  0.62181813  0.83015448  0.37368357    -0.03300
C1314       C  0.63665212  0.84972024  0.36173979     0.02200
C1315       C  0.62179399  0.95230389  0.37137279     0.09000
N1316       N  0.58927923  0.91102347  0.39346054     0.65400
H1317       H  0.59451430  0.83710039  0.39306574     0.18300
N1318       N  0.65308638  0.82996268  0.35128014     0.75800
H1319       H  0.64784573  0.90430254  0.35200980     0.09800
C1320       C  0.62768905  0.97387969  0.38795570     0.03500
C1321       C  0.62776416  0.01365159  0.38686270    -0.05200
C1322       C  0.62232721  0.03241380  0.36939856    -0.23600
C1323       C  0.61556121  0.01050229  0.35310954     0.12700
C1324       C  0.61570216  0.97090115  0.35418618    -0.12800
N1325       N  0.63460809  0.95581422  0.40565519     0.64400
H1326       H  0.63313088  0.02982514  0.39943820     0.12300
N1327       N  0.60783085  0.02798253  0.33554520     0.61000
H1328       H  0.61053570  0.95447173  0.34162305     0.08400
O1329       O  0.66903605  0.81653956  0.36043185    -0.40400
O1330       O  0.65342652  0.83120089  0.33284202    -0.39600
O1331       O  0.57603562  0.93118283  0.38404533    -0.39600
O1332       O  0.58600563  0.90449562  0.41135471    -0.37300
O1333       O  0.61610763  0.01950076  0.31928516    -0.38200
O1334       O  0.59106808  0.04821551  0.33599225    -0.34400
O1335       O  0.65029778  0.93306557  0.40536733    -0.35800
O1336       O  0.62685842  0.96603348  0.42186728    -0.40100
C1337       C  0.62836473  0.39086510  0.36468525    -0.13800
C1338       C  0.61569934  0.41084573  0.37816280     0.16600
C1339       C  0.60340724  0.39062034  0.39186960     0.02900
C1340       C  0.60442031  0.35099795  0.39228336    -0.12300
C1341       C  0.61733211  0.33061841  0.37898613    -0.03300
C1342       C  0.62924269  0.35110579  0.36493575     0.02200
C1343       C  0.61554507  0.45282817  0.37765907     0.09000
N1344       N  0.58929236  0.40990361  0.40502651     0.65400
H1345       H  0.59470682  0.33609588  0.40294022     0.18300
N1346       N  0.64288672  0.33218104  0.35128570     0.75800
H1347       H  0.63783930  0.40630250  0.35405021     0.09800
C1348       C  0.62637036  0.47469444  0.39192537     0.03500
C1349       C  0.62650984  0.51441727  0.39035999    -0.05200
C1350       C  0.61638282  0.53272778  0.37455734    -0.23600
C1351       C  0.60456415  0.51069884  0.36098551     0.12700
C1352       C  0.60444374  0.47113311  0.36253438    -0.12800
N1353       N  0.63833166  0.45693703  0.40735930     0.64400
H1354       H  0.63578523  0.53080165  0.40081446     0.12300
N1355       N  0.59230049  0.52818929  0.34572413     0.61000
H1356       H  0.59559185  0.45453140  0.35186666     0.08400
O1357       O  0.66260876  0.32785613  0.35519798    -0.40400
O1358       O  0.63609157  0.32538086  0.33423318    -0.39600
O1359       O  0.57090885  0.42023114  0.39917440    -0.39600
O1360       O  0.59359600  0.41068132  0.42306773    -0.37300
O1361       O  0.59670398  0.52141331  0.32806195    -0.38200
O1362       O  0.57549149  0.54659166  0.34988450    -0.34400
O1363       O  0.65317965  0.43378955  0.40334030    -0.35800
O1364       O  0.63592270  0.46781987  0.42480162    -0.40100
C1365       C  0.72535901  0.10814711  0.38537996    -0.13800
C1366       C  0.73895115  0.13289213  0.37507992     0.16600
C1367       C  0.72967686  0.16216358  0.36375621     0.02900
C1368       C  0.70721170  0.16450988  0.36178766    -0.12300
C1369       C  0.69368553  0.13907760  0.37158584    -0.03300
C1370       C  0.70285063  0.11106527  0.38373963     0.02200
C1371       C  0.76240946  0.12438199  0.37369924     0.09000
N1372       N  0.74296380  0.18977566  0.35430486     0.65400
H1373       H  0.70024909  0.18653613  0.35270900     0.18300
N1374       N  0.68955840  0.08345958  0.39313388     0.75800
H1375       H  0.73223718  0.08505403  0.39376653     0.09800
C1376       C  0.77589983  0.12252298  0.39027189     0.03500
C1377       C  0.79782330  0.11346503  0.38812890    -0.05200
C1378       C  0.80675871  0.10605109  0.36958071    -0.23600
C1379       C  0.79290804  0.10686929  0.35305559     0.12700
C1380       C  0.77112892  0.11626195  0.35527423    -0.12800
N1381       N  0.76778033  0.13148775  0.40924432     0.64400
H1382       H  0.80800775  0.11343610  0.40102495     0.12300
N1383       N  0.80047842  0.09733878  0.33393187     0.61000
H1384       H  0.76078120  0.11647638  0.34247551     0.08400
O1385       O  0.68916686  0.08139930  0.41154958    -0.40400
O1386       O  0.67998333  0.05864552  0.38305007    -0.39600
O1387       O  0.74014485  0.19742334  0.33645138    -0.39600
O1388       O  0.75631772  0.20882651  0.36419647    -0.37300
O1389       O  0.80486102  0.06332482  0.32985050    -0.38200
O1390       O  0.80006968  0.12181368  0.32048294    -0.34400
O1391       O  0.76536215  0.10556652  0.42174869    -0.35800
O1392       O  0.76590767  0.16568587  0.41435296    -0.40100
C1393       C  0.72495438  0.90045753  0.13528039    -0.13800
C1394       C  0.73731122  0.87342783  0.12530314     0.16600
C1395       C  0.72687926  0.84285949  0.11580711     0.02900
C1396       C  0.70438130  0.83943135  0.11715105    -0.12300
C1397       C  0.69233948  0.86501630  0.12840585    -0.03300
C1398       C  0.70267987  0.89648659  0.13690784     0.02200
C1399       C  0.76103683  0.87578838  0.12711039     0.09000
N1400       N  0.73886893  0.81383235  0.10595495     0.65400
H1401       H  0.69644497  0.81532118  0.11046152     0.18300
N1402       N  0.69065678  0.92511972  0.14684903     0.75800
H1403       H  0.73277898  0.92434511  0.14229669     0.09800
C1404       C  0.77491723  0.87896081  0.11089193     0.03500
C1405       C  0.79732657  0.87928728  0.11393604    -0.05200
C1406       C  0.80618704  0.87756075  0.13293828    -0.23600
C1407       C  0.79194810  0.87502254  0.14906176     0.12700
C1408       C  0.76978082  0.87385403  0.14594532    -0.12800
N1409       N  0.76655152  0.88272072  0.09142037     0.64400
H1410       H  0.80781081  0.88152433  0.10135236     0.12300
N1411       N  0.79955534  0.87333594  0.16879674     0.61000
H1412       H  0.75920422  0.87125559  0.15846884     0.08400
O1413       O  0.68211583  0.95158133  0.13714166    -0.40400
O1414       O  0.69160592  0.92748777  0.16524345    -0.39600
O1415       O  0.75447170  0.79775531  0.11444430    -0.39600
O1416       O  0.73221233  0.80089251  0.08982017    -0.37300
O1417       O  0.80385717  0.90362113  0.17781352    -0.38200
O1418       O  0.79843273  0.84257458  0.17814093    -0.34400
O1419       O  0.75279304  0.90801971  0.08759632    -0.35800
O1420       O  0.77452111  0.86354153  0.07763477    -0.40100
C1421       C  0.61539267  0.75400427  0.27298671    -0.13800
C1422       C  0.62744841  0.73356199  0.25917970     0.16600
C1423       C  0.64037848  0.70326747  0.26577681     0.02900
C1424       C  0.64121409  0.69420170  0.28577451    -0.12300
C1425       C  0.62911170  0.71439853  0.29975048    -0.03300
C1426       C  0.61609458  0.74481104  0.29304198     0.02200
C1427       C  0.62774821  0.74573943  0.23819677     0.09000
N1428       N  0.65228840  0.68065581  0.25220303     0.65400
H1429       H  0.65114870  0.67050452  0.29028027     0.18300
N1430       N  0.60357397  0.76690306  0.30633436     0.75800
H1431       H  0.60565232  0.77776747  0.26821328     0.09800
C1432       C  0.60893671  0.74640214  0.22653179     0.03500
C1433       C  0.60998732  0.75823051  0.20687703    -0.05200
C1434       C  0.62951238  0.77027549  0.19854680    -0.23600
C1435       C  0.64825701  0.77004736  0.21035696     0.12700
C1436       C  0.64724649  0.75767984  0.22985685    -0.12800
N1437       N  0.58867202  0.73491869  0.23441535     0.64400
H1438       H  0.59536125  0.75865034  0.19818881     0.12300
N1439       N  0.66857837  0.78172189  0.20266898     0.61000
H1440       H  0.66181272  0.75772137  0.23863240     0.08400
O1441       O  0.58362098  0.76086980  0.30788653    -0.40400
O1442       O  0.61176814  0.79572799  0.31434530    -0.39600
O1443       O  0.67245220  0.67753598  0.25394725    -0.39600
O1444       O  0.64246223  0.66110893  0.23955266    -0.37300
O1445       O  0.67604679  0.81391838  0.20697784    -0.38200
O1446       O  0.68017711  0.75826836  0.19357848    -0.34400
O1447       O  0.57370749  0.75881992  0.23636424    -0.35800
O1448       O  0.58503388  0.70032126  0.23766295    -0.40100
C1449       C  0.61962553  0.51955131  0.11302549    -0.13800
C1450       C  0.63303293  0.54014435  0.12576316     0.16600
C1451       C  0.64516036  0.52053891  0.13992150     0.02900
C1452       C  0.64372605  0.48104938  0.14114139    -0.12300
C1453       C  0.63035171  0.46016064  0.12841601    -0.03300
C1454       C  0.61800492  0.47994149  0.11431914     0.02200
C1455       C  0.63308556  0.58220326  0.12484403     0.09000
N1456       N  0.65940455  0.54030444  0.15286260     0.65400
H1457       H  0.65353433  0.46661411  0.15195343     0.18300
N1458       N  0.60283361  0.46066979  0.10204422     0.75800
H1459       H  0.60970179  0.53451544  0.10249400     0.09800
C1460       C  0.63822729  0.60122126  0.10739320     0.03500
C1461       C  0.63605409  0.64060658  0.10626364    -0.05200
C1462       C  0.62907146  0.66196433  0.12242225    -0.23600
C1463       C  0.62445338  0.64296799  0.14012646     0.12700
C1464       C  0.62652365  0.60340498  0.14117916    -0.12800
N1465       N  0.64611792  0.58087018  0.09081385     0.64400
H1466       H  0.64006886  0.65459854  0.09264850     0.12300
N1467       N  0.61632221  0.66302084  0.15672412     0.61000
H1468       H  0.62216891  0.58900703  0.15459337     0.08400
O1469       O  0.60370246  0.46458634  0.08371903    -0.40400
O1470       O  0.58684568  0.44416438  0.10958072    -0.39600
O1471       O  0.65680320  0.53805933  0.17112318    -0.39600
O1472       O  0.67578588  0.55693343  0.14615209    -0.37300
O1473       O  0.59703952  0.67436460  0.15684820    -0.38200
O1474       O  0.62769309  0.66612417  0.17196748    -0.34400
O1475       O  0.63496073  0.57899972  0.07539025    -0.35800
O1476       O  0.66514299  0.56826972  0.09087083    -0.40100
C1477       C  0.61873825  0.10376376  0.14034196    -0.13800
C1478       C  0.62507398  0.08205997  0.12410113     0.16600
C1479       C  0.63060212  0.10067806  0.10659370     0.02900
C1480       C  0.62929149  0.14022609  0.10553527    -0.12300
C1481       C  0.62298927  0.16212153  0.12176968    -0.03300
C1482       C  0.61780554  0.14337782  0.13939698     0.02200
C1483       C  0.62504618  0.04002322  0.12555629     0.09000
N1484       N  0.63805885  0.07991687  0.08992074     0.65400
H1485       H  0.63364022  0.15391684  0.09192746     0.18300
N1486       N  0.61052279  0.16385542  0.15616354     0.75800
H1487       H  0.61401610  0.08978054  0.15376985     0.09800
C1488       C  0.63568896  0.02155205  0.14108349     0.03500
C1489       C  0.63398398  0.98229160  0.14300354    -0.05200
C1490       C  0.62257330  0.96029451  0.12929920    -0.23600
C1491       C  0.61195753  0.97866582  0.11367116     0.12700
C1492       C  0.61322588  0.01829579  0.11199079    -0.12800
N1493       N  0.64905885  0.04206535  0.15454474     0.64400
H1494       H  0.64262772  0.96871160  0.15487924     0.12300
N1495       N  0.59905144  0.95783840  0.10001200     0.61000
H1496       H  0.60446931  0.03229801  0.10031980     0.08400
O1497       O  0.62292591  0.16837641  0.17063106    -0.40400
O1498       O  0.59097926  0.17332883  0.15747448    -0.39600
O1499       O  0.62960729  0.08538917  0.07334886    -0.39600
O1500       O  0.65421465  0.05837264  0.09141508    -0.37300
O1501       O  0.58297597  0.93926814  0.10595025    -0.38200
O1502       O  0.60215852  0.96149691  0.08187821    -0.34400
O1503       O  0.64725815  0.03660806  0.17270929    -0.35800
O1504       O  0.66412609  0.06269857  0.14825001    -0.40100
C1505       C  0.77461998  0.35636018  0.11017258    -0.13800
C1506       C  0.76151556  0.36645256  0.12602870     0.16600
C1507       C  0.77106783  0.38122453  0.14307098     0.02900
C1508       C  0.79344557  0.38424837  0.14441241    -0.12300
C1509       C  0.80681561  0.37294942  0.12891417    -0.03300
C1510       C  0.79717907  0.35909496  0.11149489     0.02200
C1511       C  0.73810736  0.35822266  0.12556489     0.09000
N1512       N  0.75811996  0.39331295  0.15916742     0.65400
H1513       H  0.80039338  0.39555057  0.15775214     0.18300
N1514       N  0.80996850  0.34511595  0.09564750     0.75800
H1515       H  0.76735458  0.34441912  0.09712421     0.09800
C1516       C  0.72399544  0.37666869  0.11248009     0.03500
C1517       C  0.70181334  0.36913445  0.11337277    -0.05200
C1518       C  0.69341557  0.34423704  0.12747024    -0.23600
C1519       C  0.70771975  0.32415138  0.13976029     0.12700
C1520       C  0.72985648  0.33148891  0.13875314    -0.12800
N1521       N  0.73171666  0.40505587  0.09926883     0.64400
H1522       H  0.69095986  0.38499387  0.10400455     0.12300
N1523       N  0.69999657  0.29601548  0.15314522     0.61000
H1524       H  0.74074936  0.31630986  0.14838099     0.08400
O1525       O  0.80709288  0.35784826  0.07859129    -0.40400
O1526       O  0.82180443  0.31641071  0.09813701    -0.39600
O1527       O  0.75899928  0.37579670  0.17523420    -0.39600
O1528       O  0.74694413  0.42306555  0.15775832    -0.37300
O1529       O  0.68787342  0.26974693  0.14711931    -0.38200
O1530       O  0.70673261  0.29543321  0.17057805    -0.34400
O1531       O  0.72588759  0.40462466  0.08157244    -0.35800
O1532       O  0.74225493  0.43299910  0.10572097    -0.40100
C1533       C  0.60363845  0.24290651  0.22717746    -0.13800
C1534       C  0.62148322  0.24948482  0.23945637     0.16600
C1535       C  0.64012145  0.26588791  0.23138037     0.02900
C1536       C  0.64062684  0.27577496  0.21158711    -0.12300
C1537       C  0.62268086  0.27050283  0.19924616    -0.03300
C1538       C  0.60397111  0.25347936  0.20722864     0.02200
C1539       C  0.62142646  0.23715171  0.26036410     0.09000
N1540       N  0.65858741  0.27364671  0.24330059     0.65400
H1541       H  0.65521868  0.28852873  0.20594817     0.18300
N1542       N  0.58497379  0.24805006  0.19563324     0.75800
H1543       H  0.58930520  0.22987666  0.23317148     0.09800
C1544       C  0.60754280  0.25313581  0.27443686     0.03500
C1545       C  0.60961712  0.24308417  0.29431649    -0.05200
C1546       C  0.62544748  0.21711750  0.30060040    -0.23600
C1547       C  0.63882213  0.20025107  0.28618012     0.12700
C1548       C  0.63665339  0.21034334  0.26646990    -0.12800
N1549       N  0.59180422  0.28065012  0.26886594     0.64400
H1550       H  0.59897550  0.25613122  0.30489040     0.12300
N1551       N  0.65485042  0.17279163  0.29116734     0.61000
H1552       H  0.64725650  0.19744684  0.25579783     0.08400
O1553       O  0.57528153  0.27636291  0.18855162    -0.40400
O1554       O  0.57602050  0.21596252  0.19510357    -0.39600
O1555       O  0.67647308  0.25852211  0.23933736    -0.39600
O1556       O  0.65748706  0.29815654  0.25670417    -0.37300
O1557       O  0.65062234  0.13795565  0.28956423    -0.38200
O1558       O  0.67404510  0.18321195  0.29402450    -0.34400
O1559       O  0.57206477  0.27217611  0.26914701    -0.35800
O1560       O  0.59740978  0.31451876  0.26589799    -0.40100
C1561       C  0.22520333  0.85427357  0.39038001    -0.13800
C1562       C  0.23759749  0.86295134  0.37380773     0.16600
C1563       C  0.22709684  0.87706707  0.35695375     0.02900
C1564       C  0.20468747  0.88090534  0.35673872    -0.12300
C1565       C  0.19218334  0.87182523  0.37317262    -0.03300
C1566       C  0.20271319  0.85870168  0.39024781     0.02200
C1567       C  0.26117127  0.85481409  0.37360489     0.09000
N1568       N  0.23899626  0.88798922  0.33994221     0.65400
H1569       H  0.19703029  0.89153995  0.34357424     0.18300
N1570       N  0.19080876  0.84783211  0.40721034     0.75800
H1571       H  0.23290050  0.84253459  0.40326076     0.09800
C1572       C  0.27524657  0.86799957  0.38838325     0.03500
C1573       C  0.29754310  0.86250078  0.38652296    -0.05200
C1574       C  0.30619954  0.84448632  0.36998084    -0.23600
C1575       C  0.29197152  0.82855441  0.35606829     0.12700
C1576       C  0.26974964  0.83367406  0.35805863    -0.12800
N1577       N  0.26734167  0.88904234  0.40473180     0.64400
H1578       H  0.30818011  0.87471204  0.39742398     0.12300
N1579       N  0.29983165  0.80713344  0.33980896     0.61000
H1580       H  0.25909633  0.82146942  0.34717017     0.08400
O1581       O  0.19367350  0.86527569  0.42310860    -0.40400
O1582       O  0.17978187  0.81779622  0.40702150    -0.39600
O1583       O  0.23417965  0.87431719  0.32343811    -0.39600
O1584       O  0.25325369  0.91337260  0.34114453    -0.37300
O1585       O  0.30818652  0.77497367  0.34259692    -0.38200
O1586       O  0.29641695  0.81849429  0.32257673    -0.34400
O1587       O  0.27015985  0.87664547  0.42186045    -0.35800
O1588       O  0.25960667  0.92175808  0.40222776    -0.40100
C1589       C  0.48388522  0.77308513  0.38817405    -0.13800
C1590       C  0.49129029  0.75412045  0.37149191     0.16600
C1591       C  0.47687211  0.74754881  0.35578018     0.02900
C1592       C  0.45527404  0.75929971  0.35745231    -0.12300
C1593       C  0.44762465  0.77623447  0.37472018    -0.03300
C1594       C  0.46238575  0.78428520  0.38991723     0.02200
C1595       C  0.51403711  0.74097157  0.37148714     0.09000
N1596       N  0.48339496  0.72676900  0.33873784     0.65400
H1597       H  0.44404654  0.75241066  0.34581711     0.18300
N1598       N  0.45579640  0.80398168  0.40720494     0.75800
H1599       H  0.49497668  0.77912524  0.40004881     0.09800
C1600       C  0.52918882  0.75337043  0.35753250     0.03500
C1601       C  0.55085363  0.74242641  0.35940524    -0.05200
C1602       C  0.55793179  0.72035109  0.37534648    -0.23600
C1603       C  0.54247869  0.70649924  0.38866798     0.12700
C1604       C  0.52084916  0.71697085  0.38664837    -0.12800
N1605       N  0.52322910  0.77926897  0.34231059     0.64400
H1606       H  0.56244691  0.75371070  0.34912239     0.12300
N1607       N  0.54846570  0.68192179  0.40439638     0.61000
H1608       H  0.50925199  0.70668436  0.39721213     0.08400
O1609       O  0.44665773  0.83580565  0.40577739    -0.40400
O1610       O  0.46106082  0.79158085  0.42386119    -0.39600
O1611       O  0.49385301  0.69627267  0.34051186    -0.39600
O1612       O  0.47653394  0.73636324  0.32205876    -0.37300
O1613       O  0.55422579  0.64833947  0.40081675    -0.38200
O1614       O  0.54549253  0.69216480  0.42186627    -0.34400
O1615       O  0.51491650  0.81083691  0.34658713    -0.35800
O1616       O  0.52886471  0.77287427  0.32489703    -0.40100
C1617       C  0.38745578  0.52538246  0.38606180    -0.13800
C1618       C  0.37291219  0.54650401  0.37466371     0.16600
C1619       C  0.35899101  0.52750513  0.36174906     0.02900
C1620       C  0.36012536  0.48805538  0.36005063    -0.12300
C1621       C  0.37492589  0.46655403  0.37112576    -0.03300
C1622       C  0.38881135  0.48570588  0.38428150     0.02200
C1623       C  0.37364461  0.58852429  0.37527221     0.09000
N1624       N  0.34328707  0.54792650  0.35058103     0.65400
H1625       H  0.34900231  0.47410090  0.35015669     0.18300
N1626       N  0.40526549  0.46589851  0.39489914     0.75800
H1627       H  0.39852422  0.54005194  0.39572936     0.09800
C1628       C  0.36843075  0.60843185  0.39241038     0.03500
C1629       C  0.37109732  0.64779182  0.39313907    -0.05200
C1630       C  0.37865914  0.66824032  0.37684959    -0.23600
C1631       C  0.38345236  0.64820217  0.35946445     0.12700
C1632       C  0.38080010  0.60869313  0.35882374    -0.12800
N1633       N  0.35974542  0.58907575  0.40897001     0.64400
H1634       H  0.36682861  0.66249543  0.40649129     0.12300
N1635       N  0.39209361  0.66710897  0.34272329     0.61000
H1636       H  0.38506900  0.59346998  0.34562224     0.08400
O1637       O  0.40838921  0.47313505  0.41276251    -0.40400
O1638       O  0.41892774  0.44621754  0.38577208    -0.39600
O1639       O  0.34318018  0.54561527  0.33216446    -0.39600
O1640       O  0.32835326  0.56552417  0.35917402    -0.37300
O1641       O  0.41107777  0.67987845  0.34320155    -0.38200
O1642       O  0.38177383  0.66710161  0.32679513    -0.34400
O1643       O  0.37013911  0.58811321  0.42484518    -0.35800
O1644       O  0.34080319  0.57616128  0.40829862    -0.40100
C1645       C  0.36279596  0.02864875  0.35256022    -0.13800
C1646       C  0.36899164  0.04612113  0.37008567     0.16600
C1647       C  0.37446638  0.02312112  0.38627443     0.02900
C1648       C  0.37387707  0.98347469  0.38453787    -0.12300
C1649       C  0.36830997  0.96582852  0.36677061    -0.03300
C1650       C  0.36261328  0.98921614  0.35064637     0.02200
C1651       C  0.36857568  0.08828987  0.37134093     0.09000
N1652       N  0.38121938  0.03954534  0.40442636     0.65400
H1653       H  0.37829463  0.96647485  0.39711567     0.18300
N1654       N  0.35654190  0.97368185  0.33212161     0.75800
H1655       H  0.35792480  0.04581099  0.34017022     0.09800
C1656       C  0.37847997  0.11120141  0.35697304     0.03500
C1657       C  0.37680584  0.15074769  0.35812249    -0.05200
C1658       C  0.36630704  0.16830216  0.37385832    -0.23600
C1659       C  0.35582990  0.14542154  0.38785566     0.12700
C1660       C  0.35693431  0.10586172  0.38640556    -0.12800
N1661       N  0.39141673  0.09488602  0.34183147     0.64400
H1662       H  0.38508085  0.16782035  0.34735095     0.12300
N1663       N  0.34364612  0.16195536  0.40340320     0.61000
H1664       H  0.34842923  0.08874686  0.39702655     0.08400
O1665       O  0.33685896  0.97030145  0.32780851    -0.40400
O1666       O  0.37060584  0.96912544  0.31904066    -0.39600
O1667       O  0.37168095  0.03092810  0.42008094    -0.39600
O1668       O  0.39778761  0.06022314  0.40507440    -0.37300
O1669       O  0.32680771  0.18062105  0.39958584    -0.38200
O1670       O  0.34844369  0.15476686  0.42096240    -0.34400
O1671       O  0.38833424  0.10420279  0.32422273    -0.35800
O1672       O  0.40750398  0.07470121  0.34623351    -0.40100
C1673       C  0.27686984  0.37743082  0.38708118    -0.13800
C1674       C  0.26354574  0.36072444  0.37289822     0.16600
C1675       C  0.27294228  0.34140104  0.35703541     0.02900
C1676       C  0.29531774  0.34045545  0.35512473    -0.12300
C1677       C  0.30878488  0.35794331  0.36897072    -0.03300
C1678       C  0.29937761  0.37643660  0.38522251     0.02200
C1679       C  0.24001430  0.36762881  0.37325652     0.09000
N1680       N  0.25986508  0.32257450  0.34274757     0.65400
H1681       H  0.30220189  0.32555629  0.34276666     0.18300
N1682       N  0.31227029  0.39647289  0.39920377     0.75800
H1683       H  0.26974312  0.39309647  0.39906469     0.09800
C1684       C  0.22696450  0.35615502  0.38899546     0.03500
C1685       C  0.20461207  0.36192660  0.38807837    -0.05200
C1686       C  0.19504141  0.37871219  0.37153808    -0.23600
C1687       C  0.20838692  0.39254962  0.35642154     0.12700
C1688       C  0.23061874  0.38658859  0.35738243    -0.12800
N1689       N  0.23601249  0.33660963  0.40539069     0.64400
H1690       H  0.19461479  0.35122111  0.39981051     0.12300
N1691       N  0.19967315  0.41329360  0.34019692     0.61000
H1692       H  0.24072599  0.39701766  0.34565774     0.08400
O1693       O  0.31082387  0.38853704  0.41714396    -0.40400
O1694       O  0.32282725  0.42529875  0.39398329    -0.39600
O1695       O  0.26184650  0.33047538  0.32484272    -0.39600
O1696       O  0.24724879  0.29640055  0.34789300    -0.37300
O1697       O  0.18749955  0.44135262  0.34319486    -0.38200
O1698       O  0.20608403  0.40642902  0.32305565    -0.34400
O1699       O  0.23454800  0.35063435  0.42231167    -0.35800
O1700       O  0.24394756  0.30395943  0.40320534    -0.40100
C1701       C  0.52234312  0.24279579  0.36006156    -0.13800
C1702       C  0.50882238  0.22770013  0.37450391     0.16600
C1703       C  0.51781069  0.20457389  0.38932983     0.02900
C1704       C  0.54024581  0.20038782  0.39049274    -0.12300
C1705       C  0.55394669  0.21750419  0.37677727    -0.03300
C1706       C  0.54474718  0.23789330  0.36104739     0.02200
C1707       C  0.48582708  0.23950741  0.37505204     0.09000
N1708       N  0.50441403  0.18555989  0.40335626     0.65400
H1709       H  0.54708142  0.18368378  0.40227266     0.18300
N1710       N  0.55795858  0.25644815  0.34688944     0.75800
H1711       H  0.51558443  0.26040681  0.34860009     0.09800
C1712       C  0.47710509  0.25767274  0.39169679     0.03500
C1713       C  0.45495309  0.26509914  0.39246307    -0.05200
C1714       C  0.44130266  0.25628127  0.37671250    -0.23600
C1715       C  0.45016573  0.23950003  0.35978752     0.12700
C1716       C  0.47231619  0.23145856  0.35908131    -0.12800
N1717       N  0.49055972  0.26951769  0.40770856     0.64400
H1718       H  0.44838946  0.27879133  0.40532691     0.12300
N1719       N  0.43672562  0.22806057  0.34380749     0.61000
H1720       H  0.47886390  0.21741649  0.34631513     0.08400
O1721       O  0.55795886  0.24506528  0.32939448    -0.40400
O1722       O  0.56739494  0.28698196  0.35125718    -0.39600
O1723       O  0.48715675  0.16973853  0.39795551    -0.39600
O1724       O  0.51075899  0.18142371  0.42078797    -0.37300
O1725       O  0.44088234  0.23920315  0.32669627    -0.38200
O1726       O  0.42277281  0.20255470  0.34633058    -0.34400
O1727       O  0.50809971  0.28644084  0.40445508    -0.35800
O1728       O  0.48385486  0.26692407  0.42507170    -0.40100
C1729       C  0.27592362  0.60676140  0.11351271    -0.13800
C1730       C  0.26304567  0.61731085  0.12946917     0.16600
C1731       C  0.27285584  0.63413600  0.14595326     0.02900
C1732       C  0.29522602  0.63860563  0.14656471    -0.12300
C1733       C  0.30827664  0.62712293  0.13089235    -0.03300
C1734       C  0.29836785  0.61149881  0.11407787     0.02200
C1735       C  0.23977696  0.60736727  0.12965669     0.09000
N1736       N  0.26027525  0.64661538  0.16225922     0.65400
H1737       H  0.30245502  0.65108963  0.15949408     0.18300
N1738       N  0.31094245  0.59721001  0.09823088     0.75800
H1739       H  0.26863959  0.59307531  0.10094078     0.09800
C1740       C  0.22552402  0.61939133  0.11480150     0.03500
C1741       C  0.20357477  0.61017156  0.11597465    -0.05200
C1742       C  0.19543102  0.58975277  0.13198340    -0.23600
C1743       C  0.20993820  0.57595586  0.14625280     0.12700
C1744       C  0.23185095  0.58487680  0.14496388    -0.12800
N1745       N  0.23282118  0.64303861  0.09916788     0.64400
H1746       H  0.19264374  0.62126180  0.10499142     0.12300
N1747       N  0.20269598  0.55246650  0.16198841     0.61000
H1748       H  0.24280744  0.57413778  0.15602033     0.08400
O1749       O  0.31183308  0.61535437  0.08235780    -0.40400
O1750       O  0.31858453  0.56412341  0.09913929    -0.39600
O1751       O  0.26481134  0.63540398  0.17930867    -0.39600
O1752       O  0.24540770  0.67056064  0.15979764    -0.37300
O1753       O  0.19425079  0.52068361  0.15838470    -0.38200
O1754       O  0.20646456  0.56186365  0.17947708    -0.34400
O1755       O  0.22952824  0.63335758  0.08164509    -0.35800
O1756       O  0.24067092  0.67525955  0.10283859    -0.40100
C1757       C  0.52141555  0.76095941  0.10798055    -0.13800
C1758       C  0.51397855  0.74325234  0.12501401     0.16600
C1759       C  0.52842108  0.73719537  0.14073145     0.02900
C1760       C  0.55003334  0.74837429  0.13883627    -0.12300
C1761       C  0.55771996  0.76416451  0.12130593    -0.03300
C1762       C  0.54297161  0.77137639  0.10596847     0.02200
C1763       C  0.49118529  0.73066515  0.12544546     0.09000
N1764       N  0.52180985  0.71777195  0.15813735     0.65400
H1765       H  0.56117409  0.74219288  0.15064394     0.18300
N1766       N  0.54960738  0.78909589  0.08817067     0.75800
H1767       H  0.51036626  0.76640415  0.09599584     0.09800
C1768       C  0.47637785  0.74330710  0.13971986     0.03500
C1769       C  0.45477557  0.73161303  0.13851973    -0.05200
C1770       C  0.44748405  0.70913355  0.12287311    -0.23600
C1771       C  0.46245442  0.69569315  0.10905251     0.12700
C1772       C  0.48405151  0.70644260  0.11049865    -0.12800
N1773       N  0.48254421  0.77003771  0.15455506     0.64400
H1774       H  0.44327234  0.74275162  0.14894321     0.12300
N1775       N  0.45592382  0.67129412  0.09339390     0.61000
H1776       H  0.49537240  0.69612823  0.09968948     0.08400
O1777       O  0.55232694  0.82450945  0.08764299    -0.40400
O1778       O  0.54986650  0.77028640  0.07247255    -0.39600
O1779       O  0.51198480  0.68654701  0.15692642    -0.39600
O1780       O  0.52795063  0.72948644  0.17468492    -0.37300
O1781       O  0.44788271  0.63926148  0.09710331    -0.38200
O1782       O  0.46002686  0.68017957  0.07592067    -0.34400
O1783       O  0.49330166  0.79911170  0.15009039    -0.35800
O1784       O  0.47503761  0.76711987  0.17162739    -0.40100
C1785       C  0.39871811  0.73848431  0.22635541    -0.13800
C1786       C  0.38146924  0.73170659  0.23911420     0.16600
C1787       C  0.36316258  0.71261732  0.23205222     0.02900
C1788       C  0.36229379  0.70046530  0.21260756    -0.12300
C1789       C  0.37946827  0.70692836  0.19963101    -0.03300
C1790       C  0.39800382  0.72609986  0.20673942     0.02200
C1791       C  0.38161657  0.74742068  0.25928291     0.09000
N1792       N  0.34521144  0.70548366  0.24455627     0.65400
H1793       H  0.34789559  0.68597966  0.20763965     0.18300
N1794       N  0.41640356  0.73232331  0.19454492     0.75800
H1795       H  0.41280710  0.75342283  0.23168477     0.09800
C1796       C  0.39413660  0.73165934  0.27446192     0.03500
C1797       C  0.39229909  0.74579509  0.29365362    -0.05200
C1798       C  0.37810366  0.77578469  0.29804578    -0.23600
C1799       C  0.36624180  0.79234171  0.28243075     0.12700
C1800       C  0.36799771  0.77788308  0.26345726    -0.12800
N1801       N  0.40824220  0.70054110  0.27070177     0.64400
H1802       H  0.40175847  0.73279607  0.30517951     0.12300
N1803       N  0.35247743  0.82428730  0.28540489     0.61000
H1804       H  0.35853479  0.79054737  0.25181703     0.08400
O1805       O  0.42616802  0.70444767  0.18712846    -0.40400
O1806       O  0.42488069  0.76478309  0.19374004    -0.39600
O1807       O  0.32854616  0.72581796  0.24327480    -0.39600
O1808       O  0.34509718  0.67645062  0.25531651    -0.37300
O1809       O  0.36020667  0.85731018  0.28456467    -0.38200
O1810       O  0.33231469  0.81981506  0.28561306    -0.34400
O1811       O  0.42821475  0.70620780  0.26900993    -0.35800
O1812       O  0.40115276  0.66708002  0.27149545    -0.40100
C1813       C  0.38437852  0.95976432  0.11066139    -0.13800
C1814       C  0.37279056  0.93747000  0.12408078     0.16600
C1815       C  0.36121143  0.95560173  0.13912659     0.02900
C1816       C  0.36189637  0.99508815  0.14079764    -0.12300
C1817       C  0.37349508  0.01750790  0.12746686    -0.03300
C1818       C  0.38476560  0.99947477  0.11218537     0.02200
C1819       C  0.37400559  0.89534759  0.12298322     0.09000
N1820       N  0.34816317  0.93439546  0.15247747     0.65400
H1821       H  0.35268345  0.00841792  0.15235110     0.18300
N1822       N  0.39758903  0.02082110  0.09879492     0.75800
H1823       H  0.39373701  0.94618685  0.09929049     0.09800
C1824       C  0.36931912  0.87570894  0.10552726     0.03500
C1825       C  0.37174936  0.83624546  0.10478597    -0.05200
C1826       C  0.37834889  0.81536354  0.12129902    -0.23600
C1827       C  0.38289829  0.83510122  0.13881088     0.12700
C1828       C  0.38084009  0.87466910  0.13945202    -0.12800
N1829       N  0.36155705  0.89532605  0.08857800     0.64400
H1830       H  0.36794199  0.82174779  0.09124008     0.12300
N1831       N  0.39081642  0.81574841  0.15572247     0.61000
H1832       H  0.38501399  0.88944420  0.15283164     0.08400
O1833       O  0.39280866  0.02134056  0.08084787    -0.40400
O1834       O  0.41483046  0.03615759  0.10457965    -0.39600
O1835       O  0.34964070  0.94024898  0.17064430    -0.39600
O1836       O  0.33371539  0.91248376  0.14605410    -0.37300
O1837       O  0.41085684  0.81242603  0.15832609    -0.38200
O1838       O  0.37803865  0.80683615  0.16928047    -0.34400
O1839       O  0.37078446  0.89094320  0.07231115    -0.35800
O1840       O  0.34456337  0.91488069  0.08952732    -0.40100
C1841       C  0.39281661  0.37812951  0.11815183    -0.13800
C1842       C  0.37438983  0.39503464  0.12602547     0.16600
C1843       C  0.35769772  0.37202514  0.13344251     0.02900
C1844       C  0.35985987  0.33243542  0.13292873    -0.12300
C1845       C  0.37811362  0.31554987  0.12456877    -0.03300
C1846       C  0.39483561  0.33874779  0.11743402     0.02200
C1847       C  0.37369848  0.43678614  0.12747345     0.09000
N1848       N  0.33816078  0.38842760  0.14066968     0.65400
H1849       H  0.34679346  0.31482755  0.13816494     0.18300
N1850       N  0.41437306  0.32262792  0.11018959     0.75800
H1851       H  0.40590996  0.39567621  0.11290374     0.09800
C1852       C  0.37494937  0.45506648  0.14572500     0.03500
C1853       C  0.37481576  0.49463991  0.14653776    -0.05200
C1854       C  0.37401198  0.51686018  0.12941749    -0.23600
C1855       C  0.37280718  0.49820412  0.11109497     0.12700
C1856       C  0.37257235  0.45849452  0.11034294    -0.12800
N1857       N  0.37724213  0.43387863  0.16349331     0.64400
H1858       H  0.37593754  0.50798764  0.16077311     0.12300
N1859       N  0.37163412  0.51885229  0.09313409     0.61000
H1860       H  0.37167923  0.44444662  0.09626464     0.08400
O1861       O  0.41856535  0.32419010  0.09216507    -0.40400
O1862       O  0.42870354  0.31179657  0.12206019    -0.39600
O1863       O  0.32724378  0.41026652  0.12989032    -0.39600
O1864       O  0.33045827  0.37756543  0.15678229    -0.37300
O1865       O  0.38869580  0.53151139  0.08557977    -0.38200
O1866       O  0.35464191  0.51751926  0.08298643    -0.34400
O1867       O  0.39299367  0.41163077  0.16566279    -0.35800
O1868       O  0.36526328  0.44105219  0.17791192    -0.40100
C1869       C  0.27038603  0.15029725  0.12827786    -0.13800
C1870       C  0.26106952  0.11418188  0.13027676     0.16600
C1871       C  0.27459475  0.08210863  0.13131599     0.02900
C1872       C  0.29699963  0.08671001  0.13116574    -0.12300
C1873       C  0.30623959  0.12284816  0.12993344    -0.03300
C1874       C  0.29284214  0.15478851  0.12808807     0.02200
C1875       C  0.23730024  0.11039663  0.13187371     0.09000
N1876       N  0.26582272  0.04490383  0.13357173     0.65400
H1877       H  0.30726635  0.06202016  0.13269921     0.18300
N1878       N  0.30183876  0.19195934  0.12689373     0.75800
H1879       H  0.26017162  0.17512050  0.12722088     0.09800
C1880       C  0.22599273  0.12805771  0.14720281     0.03500
C1881       C  0.20370548  0.12321012  0.14880540    -0.05200
C1882       C  0.19215871  0.10082276  0.13536118    -0.23600
C1883       C  0.20345983  0.08378359  0.11972638     0.12700
C1884       C  0.22584233  0.08859249  0.11816542    -0.12800
N1885       N  0.23706327  0.14995123  0.16167844     0.64400
H1886       H  0.19541723  0.13691390  0.16080935     0.12300
N1887       N  0.19262006  0.06057327  0.10568572     0.61000
H1888       H  0.23435197  0.07509604  0.10622792     0.08400
O1889       O  0.30443335  0.21133956  0.14222940    -0.40400
O1890       O  0.30522913  0.20678711  0.11040096    -0.39600
O1891       O  0.26912416  0.02006894  0.12064175    -0.39600
O1892       O  0.25665790  0.03576601  0.14932923    -0.37300
O1893       O  0.18626555  0.07480955  0.08975466    -0.38200
O1894       O  0.19208839  0.02511863  0.10799625    -0.34400
O1895       O  0.23357565  0.18508061  0.16302843    -0.35800
O1896       O  0.24845766  0.13357867  0.17444277    -0.40100
C1897       C  0.51817582  0.25566649  0.10741563    -0.13800
C1898       C  0.51050914  0.24357007  0.12564952     0.16600
C1899       C  0.52470592  0.24353125  0.14188403     0.02900
C1900       C  0.54614956  0.25540786  0.13937493    -0.12300
C1901       C  0.55406986  0.26568493  0.12084896    -0.03300
C1902       C  0.53962766  0.26632718  0.10482072     0.02200
C1903       C  0.48775916  0.23042689  0.12676515     0.09000
N1904       N  0.51810350  0.22945007  0.16062610     0.65400
H1905       H  0.55706900  0.25390536  0.15173721     0.18300
N1906       N  0.54650124  0.27705943  0.08566372     0.75800
H1907       H  0.50739930  0.25637113  0.09491319     0.09800
C1908       C  0.47259189  0.24598620  0.13995771     0.03500
C1909       C  0.45100819  0.23398108  0.13906485    -0.05200
C1910       C  0.44400474  0.20846971  0.12459794    -0.23600
C1911       C  0.45931556  0.19209089  0.11198517     0.12700
C1912       C  0.48091716  0.20286016  0.11329660    -0.12800
N1913       N  0.47833516  0.27588580  0.15322827     0.64400
H1914       H  0.43928675  0.24731166  0.14856177     0.12300
N1915       N  0.45308556  0.16495532  0.09750000     0.61000
H1916       H  0.49241757  0.19022614  0.10333139     0.08400
O1917       O  0.54871016  0.31164924  0.08147011    -0.40400
O1918       O  0.54754208  0.25247146  0.07229157    -0.39600
O1919       O  0.50820462  0.19831441  0.16189130    -0.39600
O1920       O  0.52429087  0.24582961  0.17606865    -0.37300
O1921       O  0.44829311  0.13163013  0.10254855    -0.38200
O1922       O  0.45453911  0.17308647  0.07958016    -0.34400
O1923       O  0.48886277  0.30415956  0.14722409    -0.35800
O1924       O  0.47063529  0.27639534  0.17029517    -0.40100
C1925       C  0.36034226  0.27125526  0.26441574    -0.13800
C1926       C  0.37593859  0.24426584  0.25957885     0.16600
C1927       C  0.39007122  0.23099865  0.27427311     0.02900
C1928       C  0.38848663  0.24535848  0.29343788    -0.12300
C1929       C  0.37320688  0.27332469  0.29824368    -0.03300
C1930       C  0.35865994  0.28551967  0.28346591     0.02200
C1931       C  0.37639423  0.22948793  0.23921708     0.09000
N1932       N  0.40666664  0.20423505  0.26976757     0.65400
H1933       H  0.39985441  0.23566443  0.30439911     0.18300
N1934       N  0.34163987  0.31162773  0.28759946     0.75800
H1935       H  0.34907569  0.28086412  0.25333165     0.09800
C1936       C  0.36820715  0.19337460  0.23460952     0.03500
C1937       C  0.36724033  0.18144125  0.21505281    -0.05200
C1938       C  0.37422621  0.20497613  0.19967901    -0.23600
C1939       C  0.38292063  0.24091792  0.20445299     0.12700
C1940       C  0.38379565  0.25283789  0.22405578    -0.12800
N1941       N  0.35998842  0.16912023  0.24957626     0.64400
H1942       H  0.36069992  0.15363450  0.21190353     0.12300
N1943       N  0.39032712  0.26618102  0.18959840     0.61000
H1944       H  0.39002418  0.28076411  0.22745687     0.08400
O1945       O  0.32532606  0.30061730  0.29698603    -0.40400
O1946       O  0.34149992  0.34384274  0.27959633    -0.39600
O1947       O  0.42061625  0.21215707  0.25701659    -0.39600
O1948       O  0.40907478  0.17505805  0.28021732    -0.37300
O1949       O  0.37734439  0.28915544  0.18175038    -0.38200
O1950       O  0.41024565  0.26922118  0.18633051    -0.34400
O1951       O  0.34175391  0.17579263  0.25692261    -0.35800
O1952       O  0.36934412  0.13819747  0.25330577    -0.40100
C1953       C  0.10716548  0.89756858  0.52407977    -0.13800
C1954       C  0.12338395  0.87378990  0.51684427     0.16600
C1955       C  0.13850129  0.85861469  0.53024303     0.02900
C1956       C  0.13703867  0.86736215  0.55037110    -0.12300
C1957       C  0.12072125  0.89130605  0.55759337    -0.03300
C1958       C  0.10565736  0.90640276  0.54397661     0.02200
C1959       C  0.12500315  0.86879369  0.49507842     0.09000
N1960       N  0.15531602  0.83408195  0.52367304     0.65400
H1961       H  0.14884413  0.85554769  0.56035078     0.18300
N1962       N  0.08899470  0.93192055  0.54986887     0.75800
H1963       H  0.09582449  0.91057578  0.51403834     0.09800
C1964       C  0.10660585  0.85973991  0.48374899     0.03500
C1965       C  0.10680085  0.86538972  0.46341274    -0.05200
C1966       C  0.12519376  0.87883961  0.45376704    -0.23600
C1967       C  0.14414542  0.88574053  0.46484525     0.12700
C1968       C  0.14381208  0.88031132  0.48532229    -0.12800
N1969       N  0.08737970  0.84581277  0.49282167     0.64400
H1970       H  0.09226172  0.85990577  0.45506258     0.12300
N1971       N  0.16322276  0.90122451  0.45600930     0.61000
H1972       H  0.15780686  0.88830561  0.49386919     0.08400
O1973       O  0.07011382  0.91969436  0.55241212    -0.40400
O1974       O  0.09232924  0.96718570  0.54941515    -0.39600
O1975       O  0.17476406  0.84319487  0.52630736    -0.39600
O1976       O  0.15077592  0.80162112  0.51711481    -0.37300
O1977       O  0.16181531  0.92637919  0.44294236    -0.38200
O1978       O  0.18152496  0.89346921  0.46304986    -0.34400
O1979       O  0.06927646  0.85969535  0.48836511    -0.35800
O1980       O  0.08832863  0.81816599  0.50450073    -0.40100
C1981       C  0.13688635  0.41297358  0.51887464    -0.13800
C1982       C  0.13173624  0.37584970  0.51339597     0.16600
C1983       C  0.12776301  0.34881538  0.52817699     0.02900
C1984       C  0.12838887  0.35964844  0.54808079    -0.12300
C1985       C  0.13276368  0.39736946  0.55349234    -0.03300
C1986       C  0.13756491  0.42386186  0.53857187     0.02200
C1987       C  0.12882828  0.36792918  0.49210217     0.09000
N1988       N  0.12242733  0.31067397  0.52316866     0.65400
H1989       H  0.12447002  0.33898771  0.55923450     0.18300
N1990       N  0.14303791  0.46222865  0.54321778     0.75800
H1991       H  0.14003705  0.43396882  0.50767065     0.09800
C1992       C  0.10877798  0.37483569  0.48311640     0.03500
C1993       C  0.10734138  0.37832208  0.46271465    -0.05200
C1994       C  0.12562503  0.37473191  0.45070916    -0.23600
C1995       C  0.14537867  0.36430623  0.45959617     0.12700
C1996       C  0.14685874  0.36142135  0.48015512    -0.12800
N1997       N  0.09000479  0.38138155  0.49467689     0.64400
H1998       H  0.09190559  0.38563567  0.45630288     0.12300
N1999       N  0.16446469  0.35986927  0.44819294     0.61000
H2000       H  0.16243507  0.35643607  0.48686843     0.08400
O2001       O  0.16012234  0.46932095  0.55257057    -0.40400
O2002       O  0.13199457  0.48916031  0.53633071    -0.39600
O2003       O  0.13723800  0.28651707  0.52114500    -0.39600
O2004       O  0.10307883  0.29985432  0.52387023    -0.37300
O2005       O  0.17523512  0.38864384  0.44330370    -0.38200
O2006       O  0.17215814  0.32721709  0.44542139    -0.34400
O2007       O  0.08413969  0.41486990  0.49832835    -0.35800
O2008       O  0.07756457  0.35417590  0.49858112    -0.40100
C2009       C  0.12170096  0.71950700  0.65319416    -0.13800
C2010       C  0.12740091  0.70130201  0.63574808     0.16600
C2011       C  0.13229179  0.72339549  0.61913780     0.02900
C2012       C  0.13110382  0.76304229  0.62015476    -0.12300
C2013       C  0.12565684  0.78141720  0.63767852    -0.03300
C2014       C  0.12066907  0.75913072  0.65430254     0.02200
C2015       C  0.12577250  0.65936067  0.63442774     0.09000
N2016       N  0.13926391  0.70589132  0.60135668     0.65400
H2017       H  0.13537675  0.77955072  0.60738328     0.18300
N2018       N  0.11358458  0.77619867  0.67216398     0.75800
H2019       H  0.11723104  0.70279257  0.66584180     0.09800
C2020       C  0.13750455  0.63503434  0.64689921     0.03500
C2021       C  0.13515334  0.59556515  0.64515317    -0.05200
C2022       C  0.12120049  0.57971661  0.63110811    -0.23600
C2023       C  0.10848454  0.60443956  0.61950079     0.12700
C2024       C  0.11114701  0.64367175  0.62106975    -0.12800
N2025       N  0.15251517  0.64995397  0.66081187     0.64400
H2026       H  0.14496679  0.57730007  0.65428115     0.12300
N2027       N  0.09227390  0.59030509  0.60647535     0.61000
H2028       H  0.10132068  0.66216068  0.61205814     0.08400
O2029       O  0.12350971  0.76963134  0.68793797    -0.40400
O2030       O  0.09617664  0.79467511  0.67252928    -0.39600
O2031       O  0.12996895  0.71359321  0.58540797    -0.39600
O2032       O  0.15586087  0.68521894  0.60132063    -0.37300
O2033       O  0.09311335  0.59801642  0.58847212    -0.38200
O2034       O  0.07581224  0.57405074  0.61328398    -0.34400
O2035       O  0.15007118  0.64334714  0.67880619    -0.35800
O2036       O  0.16921277  0.66690622  0.65501670    -0.40100
C2037       C  0.11448309  0.14147691  0.61062180    -0.13800
C2038       C  0.12818846  0.15949779  0.62398089     0.16600
C2039       C  0.14014455  0.13733145  0.63735968     0.02900
C2040       C  0.13810976  0.09767451  0.63722152    -0.12300
C2041       C  0.12448582  0.07961866  0.62372636    -0.03300
C2042       C  0.11226772  0.10201641  0.61054531     0.02200
C2043       C  0.12740337  0.20144545  0.62552530     0.09000
N2044       N  0.15475634  0.15477750  0.65084168     0.65400
H2045       H  0.14767268  0.08090998  0.64729168     0.18300
N2046       N  0.09645836  0.08528943  0.59790040     0.75800
H2047       H  0.10456413  0.15833021  0.60086950     0.09800
C2048       C  0.13227980  0.22527055  0.60956485     0.03500
C2049       C  0.12988764  0.26472470  0.61139296    -0.05200
C2050       C  0.12272320  0.28098909  0.62898846    -0.23600
C2051       C  0.11680204  0.25669432  0.64458571     0.12700
C2052       C  0.11949623  0.21750847  0.64278484    -0.12800
N2053       N  0.14056620  0.20989261  0.59174841     0.64400
H2054       H  0.13469738  0.28274304  0.59934297     0.12300
N2055       N  0.10745419  0.27125962  0.66218233     0.61000
H2056       H  0.11474684  0.19929937  0.65478704     0.08400
O2057       O  0.08089654  0.06706095  0.60511354    -0.40400
O2058       O  0.09652716  0.09262899  0.57983717    -0.39600
O2059       O  0.15286158  0.14898594  0.66896513    -0.39600
O2060       O  0.17048521  0.17382792  0.64456246    -0.37300
O2061       O  0.08985917  0.28914862  0.66145447    -0.38200
O2062       O  0.11555434  0.26297104  0.67858523    -0.34400
O2063       O  0.13100120  0.21620206  0.57576724    -0.35800
O2064       O  0.15846144  0.19291300  0.59172708    -0.40100
C2065       C  0.13295916  0.63212793  0.02596776    -0.13800
C2066       C  0.13282464  0.60199861  0.01246560     0.16600
C2067       C  0.13197077  0.56461072  0.01964152     0.02900
C2068       C  0.12993522  0.55789091  0.03975510    -0.12300
C2069       C  0.12934654  0.58779852  0.05332528    -0.03300
C2070       C  0.13144444  0.62528376  0.04630812     0.02200
C2071       C  0.13063031  0.60903480  0.99097197     0.09000
N2072       N  0.13285159  0.53307491  0.00653645     0.65400
H2073       H  0.12878512  0.52886537  0.04482970     0.18300
N2074       N  0.13046175  0.65667938  0.05946236     0.75800
H2075       H  0.13334583  0.66104240  0.02066797     0.09800
C2076       C  0.11031338  0.60544683  0.98191912     0.03500
C2077       C  0.10865228  0.60419556  0.96147835    -0.05200
C2078       C  0.12691163  0.60709843  0.94943658    -0.23600
C2079       C  0.14717332  0.61312555  0.95845482     0.12700
C2080       C  0.14889938  0.61371968  0.97908167    -0.12800
N2081       N  0.09123432  0.60149304  0.99340742     0.64400
H2082       H  0.09289541  0.59993783  0.95497458     0.12300
N2083       N  0.16631283  0.61559043  0.94698152     0.61000
H2084       H  0.16466216  0.61602364  0.98581641     0.08400
O2085       O  0.11244406  0.66838580  0.06545798    -0.40400
O2086       O  0.14726433  0.67545577  0.06320763    -0.39600
O2087       O  0.15072428  0.52285959  0.99954507    -0.39600
O2088       O  0.11650626  0.51231209  0.00419539    -0.37300
O2089       O  0.17409632  0.64760906  0.94284768    -0.38200
O2090       O  0.17670110  0.58593782  0.94282523    -0.34400
O2091       O  0.08392125  0.62968560  0.00259899    -0.35800
O2092       O  0.08022643  0.57150685  0.99235136    -0.40100
C2093       C  0.14059510  0.52934542  0.76797166    -0.13800
C2094       C  0.12290829  0.50683842  0.76267831     0.16600
C2095       C  0.10875659  0.49439597  0.77746117     0.02900
C2096       C  0.11242235  0.50474693  0.79705816    -0.12300
C2097       C  0.12998272  0.52778753  0.80242453    -0.03300
C2098       C  0.14441397  0.53954655  0.78754196     0.02200
C2099       C  0.12097283  0.49331293  0.74204217     0.09000
N2100       N  0.09011162  0.47243592  0.77267627     0.65400
H2101       H  0.10097258  0.49574222  0.80803527     0.18300
N2102       N  0.16351845  0.56055083  0.79205307     0.75800
H2103       H  0.15203003  0.53792066  0.75687388     0.09800
C2104       C  0.11963916  0.51871432  0.72610431     0.03500
C2105       C  0.12040909  0.50493528  0.70678785    -0.05200
C2106       C  0.12254402  0.46598269  0.70296714    -0.23600
C2107       C  0.12327430  0.44059416  0.71897262     0.12700
C2108       C  0.12259626  0.45438377  0.73819945    -0.12800
N2109       N  0.11742200  0.55855411  0.72934716     0.64400
H2110       H  0.11970712  0.52484874  0.69474051     0.12300
N2111       N  0.12438783  0.40055353  0.71593995     0.61000
H2112       H  0.12375672  0.43452563  0.75024493     0.08400
O2113       O  0.16713045  0.59162505  0.78354225    -0.40400
O2114       O  0.17823907  0.54535316  0.80212699    -0.39600
O2115       O  0.08736900  0.44036688  0.78043448    -0.39600
O2116       O  0.07517598  0.48696967  0.76260861    -0.37300
O2117       O  0.14134917  0.38270460  0.72030078    -0.38200
O2118       O  0.10766044  0.38249019  0.71110564    -0.34400
O2119       O  0.13140276  0.58117656  0.72282846    -0.35800
O2120       O  0.10049189  0.57141458  0.73707269    -0.40100
C2121       C  0.14447685  0.10510218  0.98407485    -0.13800
C2122       C  0.12522109  0.10848912  0.99470190     0.16600
C2123       C  0.10562047  0.11269294  0.98434058     0.02900
C2124       C  0.10539104  0.10912249  0.96386919    -0.12300
C2125       C  0.12444579  0.10332268  0.95326852    -0.03300
C2126       C  0.14425694  0.10306475  0.96347968     0.02200
C2127       C  0.12511208  0.10039530  0.01616808     0.09000
N2128       N  0.08577349  0.11923410  0.99452866     0.65400
H2129       H  0.09012321  0.11005547  0.95615549     0.18300
N2130       N  0.16403962  0.09704949  0.95331272     0.75800
H2131       H  0.15960333  0.10176060  0.99183249     0.09800
C2132       C  0.11508219  0.06727056  0.02327305     0.03500
C2133       C  0.11359145  0.06104263  0.04346465    -0.05200
C2134       C  0.12246445  0.08646620  0.05716637    -0.23600
C2135       C  0.13286876  0.11931987  0.05000963     0.12700
C2136       C  0.13404896  0.12605634  0.02967043    -0.12800
N2137       N  0.10677725  0.03911750  0.01011068     0.64400
H2138       H  0.10590410  0.03523239  0.04841992     0.12300
N2139       N  0.14137117  0.14700014  0.06313481     0.61000
H2140       H  0.14162777  0.15174412  0.02441706     0.08400
O2141       O  0.17326474  0.06522976  0.95420314    -0.40400
O2142       O  0.17359843  0.12471488  0.94551913    -0.39600
O2143       O  0.08496096  0.14350448  0.00807464    -0.39600
O2144       O  0.06860970  0.10344881  0.98886343    -0.37300
O2145       O  0.16096652  0.14570329  0.06803363    -0.38200
O2146       O  0.13040080  0.17611062  0.06701663    -0.34400
O2147       O  0.11855678  0.02598863  0.99669998    -0.35800
O2148       O  0.08858797  0.02433300  0.01318090    -0.40100
C2149       C  0.10704836  0.85760989  0.88611801    -0.13800
C2150       C  0.12352954  0.84160971  0.87486847     0.16600
C2151       C  0.13755816  0.86551307  0.86438407     0.02900
C2152       C  0.13517707  0.90502279  0.86572289    -0.12300
C2153       C  0.11910806  0.92114680  0.87753187    -0.03300
C2154       C  0.10443423  0.89699758  0.88727652     0.02200
C2155       C  0.12472868  0.79978656  0.87320600     0.09000
N2156       N  0.15475673  0.85006178  0.85296203     0.65400
H2157       H  0.14654466  0.92316103  0.85821101     0.18300
N2158       N  0.08623938  0.91199461  0.89761159     0.75800
H2159       H  0.09572231  0.83925133  0.89354873     0.09800
C2160       C  0.13060024  0.77715550  0.88930879     0.03500
C2161       C  0.13000422  0.73752741  0.88774534    -0.05200
C2162       C  0.12378469  0.71973889  0.87019484    -0.23600
C2163       C  0.11736090  0.74277842  0.85417417     0.12700
C2164       C  0.11817940  0.78237102  0.85579111    -0.12800
N2165       N  0.13798131  0.79416000  0.90709318     0.64400
H2166       H  0.13527807  0.72066836  0.90010550     0.12300
N2167       N  0.10918513  0.72658153  0.83642890     0.61000
H2168       H  0.11300881  0.79971182  0.84356347     0.08400
O2169       O  0.08126002  0.89894531  0.91417673    -0.40400
O2170       O  0.07366549  0.93499440  0.88922121    -0.39600
O2171       O  0.15746818  0.86082975  0.83554462    -0.39600
O2172       O  0.16836441  0.82815386  0.86076893    -0.37300
O2173       O  0.09226877  0.70675954  0.83678311    -0.38200
O2174       O  0.11712930  0.73608981  0.82018403    -0.34400
O2175       O  0.12811745  0.78810605  0.92289193    -0.35800
O2176       O  0.15521854  0.81310968  0.90726754    -0.40100
C2177       C  0.12825141  0.27762649  0.89699081    -0.13800
C2178       C  0.12338268  0.29933552  0.88029889     0.16600
C2179       C  0.11916353  0.28075897  0.86249209     0.02900
C2180       C  0.12072693  0.24132046  0.86142035    -0.12300
C2181       C  0.12603235  0.21933974  0.87793551    -0.03300
C2182       C  0.12961101  0.23790959  0.89597957     0.02200
C2183       C  0.12390904  0.34139272  0.88127944     0.09000
N2184       N  0.11279141  0.30159851  0.84545867     0.65400
H2185       H  0.11737851  0.22776547  0.84751912     0.18300
N2186       N  0.13574671  0.21721324  0.91310174     0.75800
H2187       H  0.13177159  0.29169024  0.91072243     0.09800
C2188       C  0.11110130  0.36142884  0.89470393     0.03500
C2189       C  0.11226464  0.40096707  0.89543762    -0.05200
C2190       C  0.12579380  0.42150903  0.88278044    -0.23600
C2191       C  0.13883704  0.40137058  0.86946188     0.12700
C2192       C  0.13773329  0.36164911  0.86880832    -0.12800
N2193       N  0.09610887  0.34214821  0.90706596     0.64400
H2194       H  0.10182165  0.41575209  0.90556500     0.12300
N2195       N  0.15391567  0.42055786  0.85716247     0.61000
H2196       H  0.14805665  0.34641563  0.85875481     0.08400
O2197       O  0.12365043  0.21714268  0.92790105    -0.40400
O2198       O  0.15422698  0.20242664  0.91419616    -0.39600
O2199       O  0.12305887  0.29781235  0.82967665    -0.39600
O2200       O  0.09602507  0.32183097  0.84580331    -0.37300
O2201       O  0.16979039  0.43756529  0.86468351    -0.38200
O2202       O  0.15295080  0.41647869  0.83884458    -0.34400
O2203       O  0.09673488  0.34711311  0.92533759    -0.35800
O2204       O  0.08080523  0.32351420  0.89960167    -0.40100
C2205       C  0.14198977  0.02369892  0.77220685    -0.13800
C2206       C  0.12218483  0.01253079  0.76420182     0.16600
C2207       C  0.10368614  0.01313750  0.77622934     0.02900
C2208       C  0.10553191  0.02424166  0.79599684    -0.12300
C2209       C  0.12553012  0.03479053  0.80408498    -0.03300
C2210       C  0.14383199  0.03472658  0.79181953     0.02200
C2211       C  0.12187506  0.99866720  0.74356522     0.09000
N2212       N  0.08307807  0.00193094  0.76874987     0.65400
H2213       H  0.09125088  0.02466592  0.80506889     0.18300
N2214       N  0.16467449  0.04425645  0.79924223     0.75800
H2215       H  0.15630976  0.02320509  0.76317403     0.09800
C2216       C  0.11091278  0.01766684  0.72827420     0.03500
C2217       C  0.11236109  0.00380266  0.70893526    -0.05200
C2218       C  0.12482965  0.97159553  0.70439713    -0.23600
C2219       C  0.13506733  0.95207154  0.72000991     0.12700
C2220       C  0.13370370  0.96599815  0.73914881    -0.12800
N2221       N  0.09907795  0.05183218  0.73194459     0.64400
H2222       H  0.10431392  0.01916065  0.69730431     0.12300
N2223       N  0.14654398  0.91743476  0.71687350     0.61000
H2224       H  0.14185512  0.95083453  0.75080766     0.08400
O2225       O  0.17481404  0.07195152  0.79210095    -0.40400
O2226       O  0.17427643  0.02152287  0.81052448    -0.39600
O2227       O  0.08057439  0.96938035  0.76144436    -0.39600
O2228       O  0.06688445  0.02301359  0.77122983    -0.37300
O2229       O  0.16629374  0.91534958  0.72116658    -0.38200
O2230       O  0.13631449  0.88761762  0.71264869    -0.34400
O2231       O  0.10767815  0.07862720  0.74137982    -0.35800
O2232       O  0.08089898  0.05686513  0.72404269    -0.40100
C2233       C  0.85885118  0.86102836  0.97904010    -0.13800
C2234       C  0.87437667  0.87683878  0.99162824     0.16600
C2235       C  0.89172435  0.89700714  0.98348967     0.02900
C2236       C  0.89312916  0.90155803  0.96321633    -0.12300
C2237       C  0.87720654  0.88735519  0.95042079    -0.03300
C2238       C  0.85996634  0.86623545  0.95857515     0.02200
C2239       C  0.87250276  0.87301931  0.01328501     0.09000
N2240       N  0.90754419  0.91472983  0.99573514     0.65400
H2241       H  0.90657426  0.91769942  0.95754964     0.18300
N2242       N  0.84312125  0.85096537  0.94657634     0.75800
H2243       H  0.84548208  0.84537987  0.98520352     0.09800
C2244       C  0.85588299  0.89121725  0.02376406     0.03500
C2245       C  0.85663893  0.89238068  0.04432692    -0.05200
C2246       C  0.87400097  0.87644254  0.05465522    -0.23600
C2247       C  0.88983483  0.85622445  0.04424862     0.12700
C2248       C  0.88886147  0.85432610  0.02375370    -0.12800
N2249       N  0.83920705  0.91142608  0.01371877     0.64400
H2250       H  0.84450825  0.90838546  0.05215925     0.12300
N2251       N  0.90726705  0.83820163  0.05427887     0.61000
H2252       H  0.90158233  0.83987089  0.01589678     0.08400
O2253       O  0.83107985  0.87299610  0.93695540    -0.40400
O2254       O  0.83769918  0.81671012  0.94852502    -0.39600
O2255       O  0.92726505  0.90735781  0.99342387    -0.39600
O2256       O  0.90202667  0.94051461  0.00749985    -0.37300
O2257       O  0.90827885  0.80250667  0.05473155    -0.38200
O2258       O  0.92329152  0.85749869  0.05974309    -0.34400
O2259       O  0.81972430  0.90304163  0.01663701    -0.35800
O2260       O  0.84379342  0.94019636  0.00359162    -0.40100
C2261       C  0.01794459  0.02833489  0.89220043    -0.13800
C2262       C  0.01157383  0.00337921  0.87727871     0.16600
C2263       C  0.02654192  0.99295914  0.86277876     0.02900
C2264       C  0.04777928  0.00642370  0.86392103    -0.12300
C2265       C  0.05455059  0.02925397  0.87963863    -0.03300
C2266       C  0.03919158  0.04145582  0.89347842     0.02200
C2267       C  0.98913410  0.98892488  0.87715620     0.09000
N2268       N  0.02088684  0.96644884  0.84774471     0.65400
H2269       H  0.05945476  0.99629022  0.85338797     0.18300
N2270       N  0.04496759  0.06710522  0.90887881     0.75800
H2271       H  0.00630469  0.03754404  0.90298944     0.09800
C2272       C  0.98096363  0.96905717  0.89337853     0.03500
C2273       C  0.95907957  0.95994739  0.89418040    -0.05200
C2274       C  0.94496112  0.96993922  0.87893341    -0.23600
C2275       C  0.95329509  0.98875842  0.86233243     0.12700
C2276       C  0.97530156  0.99779667  0.86153307    -0.12800
N2277       N  0.99476546  0.95808926  0.90919189     0.64400
H2278       H  0.95305144  0.94517841  0.90693636     0.12300
N2279       N  0.93939225  0.00186063  0.84703390     0.61000
H2280       H  0.98138957  0.01363080  0.84914859     0.08400
O2281       O  0.04007711  0.05964282  0.92636299    -0.40400
O2282       O  0.05353487  0.09857609  0.90485627    -0.39600
O2283       O  0.02558086  0.97332927  0.83015636    -0.39600
O2284       O  0.01329202  0.93444361  0.85223405    -0.37300
O2285       O  0.92693550  0.02951077  0.85006911    -0.38200
O2286       O  0.94140748  0.98893744  0.82992909    -0.34400
O2287       O  0.99114618  0.96998585  0.92627626    -0.35800
O2288       O  0.00968033  0.93443427  0.90634073    -0.40100
C2289       C  0.86339550  0.35824828  0.97625842    -0.13800
C2290       C  0.87932977  0.37368888  0.98859871     0.16600
C2291       C  0.89719114  0.39184464  0.97997670     0.02900
C2292       C  0.89852663  0.39504946  0.95962639    -0.12300
C2293       C  0.88204174  0.38180271  0.94719182    -0.03300
C2294       C  0.86438812  0.36253751  0.95574970     0.02200
C2295       C  0.87719017  0.37170527  0.01039579     0.09000
N2296       N  0.91358627  0.40924629  0.99170686     0.65400
H2297       H  0.91231519  0.40974990  0.95360209     0.18300
N2298       N  0.84693422  0.34852396  0.94409239     0.75800
H2299       H  0.84972218  0.34378843  0.98263436     0.09800
C2300       C  0.85889274  0.38620094  0.02016296     0.03500
C2301       C  0.85879851  0.38875366  0.04070113    -0.05200
C2302       C  0.87696577  0.37843351  0.05173834    -0.23600
C2303       C  0.89475456  0.36213477  0.04211783     0.12700
C2304       C  0.89448330  0.35797032  0.02169934    -0.12800
N2305       N  0.84109729  0.40152095  0.00942636     0.64400
H2306       H  0.84515836  0.40179572  0.04792554     0.12300
N2307       N  0.91352276  0.35088419  0.05281821     0.61000
H2308       H  0.90844573  0.34595270  0.01452248     0.08400
O2309       O  0.83452409  0.37156982  0.93555327    -0.40400
O2310       O  0.84144751  0.31420112  0.94546948    -0.39600
O2311       O  0.93309101  0.40041707  0.98922546    -0.39600
O2312       O  0.90888849  0.43658388  0.00281219    -0.37300
O2313       O  0.91862264  0.31630921  0.05361544    -0.38200
O2314       O  0.92689467  0.37560744  0.05835865    -0.34400
O2315       O  0.82244891  0.38812875  0.01182638    -0.35800
O2316       O  0.84354180  0.43118046  0.99936521    -0.40100
C2317       C  0.87171255  0.62750616  0.86443187    -0.13800
C2318       C  0.88367284  0.64782815  0.87844138     0.16600
C2319       C  0.89395859  0.62807794  0.89367853     0.02900
C2320       C  0.89218483  0.58870134  0.89471274    -0.12300
C2321       C  0.88051434  0.56804993  0.88060187    -0.03300
C2322       C  0.86995653  0.58788048  0.86542047     0.02200
C2323       C  0.88447622  0.68977241  0.87747927     0.09000
N2324       N  0.90703998  0.64750863  0.90772746     0.65400
H2325       H  0.90077337  0.57408511  0.90629003     0.18300
N2326       N  0.85663431  0.56851407  0.85152579     0.75800
H2327       H  0.86324286  0.64263210  0.85295891     0.09800
C2328       C  0.89179161  0.70837657  0.86056526     0.03500
C2329       C  0.89048495  0.74784049  0.85934885    -0.05200
C2330       C  0.88221020  0.76960730  0.87485711    -0.23600
C2331       C  0.87546860  0.75095395  0.89207002     0.12700
C2332       C  0.87670470  0.71133870  0.89323166    -0.12800
N2333       N  0.90079282  0.68752302  0.84459255     0.64400
H2334       H  0.89606042  0.76155569  0.84612137     0.12300
N2335       N  0.86590415  0.77140140  0.90788202     0.61000
H2336       H  0.87071807  0.69721147  0.90619343     0.08400
O2337       O  0.85999796  0.57238725  0.83344391    -0.40400
O2338       O  0.84003923  0.55111605  0.85722885    -0.39600
O2339       O  0.90279708  0.64498682  0.92571754    -0.39600
O2340       O  0.92405038  0.66400838  0.90234039    -0.37300
O2341       O  0.84684296  0.78350064  0.90631176    -0.38200
O2342       O  0.87543414  0.77324721  0.92418005    -0.34400
O2343       O  0.89303189  0.69108369  0.82761266    -0.35800
O2344       O  0.91745461  0.66761705  0.84717322    -0.40100
C2345       C  0.87686254  0.21115183  0.88666250    -0.13800
C2346       C  0.88278890  0.18991573  0.87014799     0.16600
C2347       C  0.88754918  0.20895928  0.85257602     0.02900
C2348       C  0.88585661  0.24853504  0.85172170    -0.12300
C2349       C  0.87990794  0.26992208  0.86823715    -0.03300
C2350       C  0.87541264  0.25071525  0.88589520     0.02200
C2351       C  0.88271506  0.14786087  0.87139016     0.09000
N2352       N  0.89464480  0.18858530  0.83565541     0.65400
H2353       H  0.88965259  0.26267274  0.83809737     0.18300
N2354       N  0.86808710  0.27063150  0.90283720     0.75800
H2355       H  0.87266299  0.19678659  0.90012952     0.09800
C2356       C  0.89402208  0.12906799  0.88641068     0.03500
C2357       C  0.89155352  0.09000819  0.88877839    -0.05200
C2358       C  0.87841962  0.06853748  0.87614080    -0.23600
C2359       C  0.86758150  0.08715521  0.86071524     0.12700
C2360       C  0.86975758  0.12656956  0.85852494    -0.12800
N2361       N  0.90853038  0.14913811  0.89905477     0.64400
H2362       H  0.90065592  0.07616779  0.90028716     0.12300
N2363       N  0.85352540  0.06690606  0.84781253     0.61000
H2364       H  0.86066237  0.14082364  0.84715131     0.08400
O2365       O  0.84894994  0.28261865  0.90354781    -0.40400
O2366       O  0.87986702  0.27241225  0.91788119    -0.39600
O2367       O  0.88554358  0.19382760  0.81934998    -0.39600
O2368       O  0.91106239  0.16755394  0.83665425    -0.37300
O2369       O  0.83630727  0.05270352  0.85428332    -0.38200
O2370       O  0.85705388  0.06684853  0.82964575    -0.34400
O2371       O  0.90769506  0.14429919  0.91732652    -0.35800
O2372       O  0.92344793  0.16902088  0.89188855    -0.40100
C2373       C  0.98457967  0.47838685  0.89047561    -0.13800
C2374       C  0.99153305  0.49432728  0.87282310     0.16600
C2375       C  0.97732125  0.49503226  0.85670931     0.02900
C2376       C  0.95611799  0.48154393  0.85885113    -0.12300
C2377       C  0.94873978  0.46758893  0.87694374    -0.03300
C2378       C  0.96358045  0.46477381  0.89264260     0.02200
C2379       C  0.01398640  0.50879404  0.87177532     0.09000
N2380       N  0.98377333  0.51141145  0.83850504     0.65400
H2381       H  0.94504480  0.48419950  0.84664885     0.18300
N2382       N  0.95764818  0.44796191  0.91089800     0.75800
H2383       H  0.99565736  0.47634193  0.90271829     0.09800
C2384       C  0.02117445  0.53655221  0.88512306     0.03500
C2385       C  0.04325142  0.54343927  0.88734332    -0.05200
C2386       C  0.05846618  0.52389182  0.87606097    -0.23600
C2387       C  0.05121436  0.49773083  0.86179446     0.12700
C2388       C  0.02904955  0.49055769  0.85973628    -0.12800
N2389       N  0.00613737  0.55752677  0.89671075     0.64400
H2390       H  0.04857081  0.56409461  0.89805008     0.12300
N2391       N  0.06614479  0.47559882  0.85066636     0.61000
H2392       H  0.02371174  0.46869701  0.84969981     0.08400
O2393       O  0.95870178  0.46707991  0.92647320    -0.40400
O2394       O  0.95335527  0.41304756  0.91171913    -0.39600
O2395       O  0.98220023  0.49252167  0.82289451    -0.39600
O2396       O  0.98935432  0.54576710  0.83776939    -0.37300
O2397       O  0.07826639  0.45209167  0.85921698    -0.38200
O2398       O  0.06506536  0.47554091  0.83223447    -0.34400
O2399       O  0.00851386  0.55954902  0.91501784    -0.35800
O2400       O  0.99131230  0.57622089  0.88851223    -0.40100
C2401       C  0.87823327  0.56279324  0.51768377    -0.13800
C2402       C  0.87027880  0.59732401  0.51061927     0.16600
C2403       C  0.86221260  0.62403936  0.52414066     0.02900
C2404       C  0.86325105  0.61639735  0.54444291    -0.12300
C2405       C  0.87235867  0.58243879  0.55151079    -0.03300
C2406       C  0.87911143  0.55491730  0.53771008     0.02200
C2407       C  0.87113610  0.60384865  0.48902198     0.09000
N2408       N  0.85392150  0.65963258  0.51755974     0.65400
H2409       H  0.85781889  0.63775679  0.55468839     0.18300
N2410       N  0.88649826  0.51827007  0.54373666     0.75800
H2411       H  0.88377527  0.54148196  0.50743804     0.09800
C2412       C  0.89117773  0.60239023  0.47938603     0.03500
C2413       C  0.89199163  0.59719626  0.45908476    -0.05200
C2414       C  0.87313072  0.59452680  0.44776674    -0.23600
C2415       C  0.85304669  0.59941179  0.45713818     0.12700
C2416       C  0.85217708  0.60364560  0.47767439    -0.12800
N2417       N  0.91088570  0.60425252  0.49028386     0.64400
H2418       H  0.90757451  0.59415089  0.45214967     0.12300
N2419       N  0.83340792  0.59631780  0.44631289     0.61000
H2420       H  0.83665281  0.60425787  0.48486584     0.08400
O2421       O  0.90493544  0.50680579  0.53872895    -0.40400
O2422       O  0.87372035  0.49575869  0.55213155    -0.39600
O2423       O  0.83494492  0.66932378  0.52184129    -0.39600
O2424       O  0.86615120  0.68286428  0.50902440    -0.37300
O2425       O  0.82410952  0.56466509  0.44477928    -0.38200
O2426       O  0.82444553  0.62570808  0.43964351    -0.34400
O2427       O  0.92483740  0.57845759  0.48855956    -0.35800
O2428       O  0.91464097  0.63227462  0.50124739    -0.40100
C2429       C  0.97680283  0.48470320  0.63939929    -0.13800
C2430       C  0.99037073  0.49851500  0.62461696     0.16600
C2431       C  0.98130610  0.51928303  0.60897215     0.02900
C2432       C  0.95893068  0.52390139  0.60781223    -0.12300
C2433       C  0.94526363  0.50919270  0.62225437    -0.03300
C2434       C  0.95438922  0.48977802  0.63835759     0.02200
C2435       C  0.01355008  0.48773808  0.62448806     0.09000
N2436       N  0.99466193  0.53598379  0.59421865     0.65400
H2437       H  0.95216457  0.53946477  0.59558805     0.18300
N2438       N  0.94107827  0.47246821  0.65290448     0.75800
H2439       H  0.98352599  0.46807480  0.65125784     0.09800
C2440       C  0.02729431  0.49521996  0.64046285     0.03500
C2441       C  0.04916233  0.48543800  0.63938281    -0.05200
C2442       C  0.05784707  0.46869706  0.62243812    -0.23600
C2443       C  0.04372103  0.45927999  0.60689902     0.12700
C2444       C  0.02188098  0.46894375  0.60806651    -0.12800
N2445       N  0.01960133  0.51487987  0.65735606     0.64400
H2446       H  0.05960884  0.49314363  0.65146595     0.12300
N2447       N  0.05120707  0.43978141  0.58986338     0.61000
H2448       H  0.01128644  0.46168583  0.59600741     0.08400
O2449       O  0.94368797  0.48067437  0.67071925    -0.40400
O2450       O  0.92859260  0.44570525  0.64823556    -0.39600
O2451       O  0.98961903  0.53303118  0.57638627    -0.39600
O2452       O  0.01071170  0.55589953  0.59903989    -0.37300
O2453       O  0.04891354  0.45455112  0.57317797    -0.38200
O2454       O  0.05810191  0.40624246  0.59128107    -0.34400
O2455       O  0.02103322  0.49969118  0.67401475    -0.35800
O2456       O  0.01343696  0.54884809  0.65591818    -0.40100
C2457       C  0.88251055  0.53376564  0.73543270    -0.13800
C2458       C  0.88152192  0.49499246  0.73980814     0.16600
C2459       C  0.87933453  0.46877002  0.72430838     0.02900
C2460       C  0.87834504  0.48160904  0.70485341    -0.12300
C2461       C  0.87897239  0.52045751  0.70051638    -0.03300
C2462       C  0.88108612  0.54663610  0.71606604     0.02200
C2463       C  0.88055652  0.48287257  0.76067232     0.09000
N2464       N  0.87791246  0.42903770  0.72815099     0.65400
H2465       H  0.87660960  0.46118467  0.69312294     0.18300
N2466       N  0.88201744  0.58646982  0.71239202     0.75800
H2467       H  0.88382535  0.55426344  0.74718318     0.09800
C2468       C  0.89742659  0.49046366  0.77399988     0.03500
C2469       C  0.89518124  0.48077995  0.79386927    -0.05200
C2470       C  0.87631476  0.46334667  0.80081340    -0.23600
C2471       C  0.85914485  0.45718677  0.78746023     0.12700
C2472       C  0.86154744  0.46647390  0.76765131    -0.12800
N2473       N  0.91724681  0.50657814  0.76739176     0.64400
H2474       H  0.90861553  0.48550848  0.80372286     0.12300
N2475       N  0.83868152  0.44358491  0.79395305     0.61000
H2476       H  0.84813331  0.46206906  0.75772432     0.08400
O2477       O  0.89997242  0.60213964  0.70940807    -0.40400
O2478       O  0.86548697  0.60665533  0.71497855    -0.39600
O2479       O  0.86110809  0.41100200  0.72351111    -0.39600
O2480       O  0.89402809  0.41141150  0.73480645    -0.37300
O2481       O  0.82760758  0.46369066  0.80540126    -0.38200
O2482       O  0.83014258  0.41526827  0.78574652    -0.34400
O2483       O  0.92411939  0.53699120  0.77484005    -0.35800
O2484       O  0.92880917  0.48875305  0.75534018    -0.40100
C2485       C  0.85258922  0.09483726  0.52362414    -0.13800
C2486       C  0.87147919  0.10168716  0.51291450     0.16600
C2487       C  0.89096775  0.10803610  0.52315455     0.02900
C2488       C  0.89159567  0.10357081  0.54356240    -0.12300
C2489       C  0.87300857  0.09443218  0.55420720    -0.03300
C2490       C  0.85318785  0.09147342  0.54414938     0.02200
C2491       C  0.87164318  0.09510903  0.49134256     0.09000
N2492       N  0.91033659  0.11785673  0.51290775     0.65400
H2493       H  0.90683438  0.10655594  0.55118282     0.18300
N2494       N  0.83399396  0.08118163  0.55431602     0.75800
H2495       H  0.83759843  0.08957037  0.51593588     0.09800
C2496       C  0.88281198  0.06372985  0.48360722     0.03500
C2497       C  0.88424902  0.05886434  0.46334801    -0.05200
C2498       C  0.87428202  0.08406590  0.45015720    -0.23600
C2499       C  0.86283302  0.11531977  0.45792810     0.12700
C2500       C  0.86159848  0.12055446  0.47837890    -0.12800
N2501       N  0.89229381  0.03583214  0.49620900     0.64400
H2502       H  0.89280904  0.03424028  0.45796528     0.12300
N2503       N  0.85286561  0.14246991  0.44533476     0.61000
H2504       H  0.85310076  0.14491576  0.48414582     0.08400
O2505       O  0.82933139  0.04667427  0.55661713    -0.40400
O2506       O  0.82051325  0.10636886  0.55894057    -0.39600
O2507       O  0.90986178  0.14266150  0.49961327    -0.39600
O2508       O  0.92825386  0.10450035  0.51832352    -0.37300
O2509       O  0.83286386  0.14082941  0.44212582    -0.38200
O2510       O  0.86347765  0.17072385  0.43945713    -0.34400
O2511       O  0.88067504  0.01802481  0.50821493    -0.35800
O2512       O  0.91156439  0.02559020  0.49365753    -0.40100
C2513       C  0.89236246  0.84488696  0.60976965    -0.13800
C2514       C  0.87905809  0.82707274  0.62345227     0.16600
C2515       C  0.86770265  0.84931232  0.63707863     0.02900
C2516       C  0.86940937  0.88890506  0.63657072    -0.12300
C2517       C  0.88247795  0.90703235  0.62266921    -0.03300
C2518       C  0.89454751  0.88440901  0.60947434     0.02200
C2519       C  0.87886259  0.78513004  0.62451222     0.09000
N2520       N  0.85390130  0.83200176  0.65117043     0.65400
H2521       H  0.86001356  0.90550703  0.64679345     0.18300
N2522       N  0.90988730  0.90086529  0.59635721     0.75800
H2523       H  0.90180663  0.82783684  0.59977177     0.09800
C2524       C  0.87079602  0.76267350  0.60908995     0.03500
C2525       C  0.87146838  0.72296473  0.61048491    -0.05200
C2526       C  0.88004854  0.70517539  0.62717078    -0.23600
C2527       C  0.88908268  0.72797054  0.64215329     0.12700
C2528       C  0.88816680  0.76747460  0.64078628    -0.12800
N2529       N  0.86095645  0.77988264  0.59238700     0.64400
H2530       H  0.86433071  0.70609240  0.59891856     0.12300
N2531       N  0.89985516  0.71141207  0.65859136     0.61000
H2532       H  0.89517256  0.78455101  0.65234847     0.08400
O2533       O  0.90930254  0.89280987  0.57837797    -0.40400
O2534       O  0.92558395  0.91958532  0.60307029    -0.39600
O2535       O  0.85910336  0.83206535  0.66902252    -0.39600
O2536       O  0.83549522  0.82040449  0.64608657    -0.37300
O2537       O  0.91773283  0.69501955  0.65624167    -0.38200
O2538       O  0.89297269  0.71735059  0.67566776    -0.34400
O2539       O  0.86966742  0.77700680  0.57580517    -0.35800
O2540       O  0.84271076  0.79535744  0.59391822    -0.40100
C2541       C  0.86600690  0.34835758  0.64180419    -0.13800
C2542       C  0.87735552  0.32582162  0.62836145     0.16600
C2543       C  0.88871276  0.34346642  0.61310243     0.02900
C2544       C  0.88815057  0.38290676  0.61124641    -0.12300
C2545       C  0.87670536  0.40575189  0.62453956    -0.03300
C2546       C  0.86546117  0.38805224  0.64001382     0.02200
C2547       C  0.87602845  0.28385417  0.62963534     0.09000
N2548       N  0.90144941  0.32173469  0.59973790     0.65400
H2549       H  0.89733149  0.39580822  0.59955498     0.18300
N2550       N  0.85253336  0.40954448  0.65334466     0.75800
H2551       H  0.85683362  0.33489198  0.65332947     0.09800
C2552       C  0.88253020  0.26446704  0.64662596     0.03500
C2553       C  0.87999645  0.22512425  0.64779839    -0.05200
C2554       C  0.87125684  0.20418875  0.63213717    -0.23600
C2555       C  0.86474336  0.22370754  0.61506100     0.12700
C2556       C  0.86730816  0.26316916  0.61393038    -0.12800
N2557       N  0.89242174  0.28426989  0.66253866     0.64400
H2558       H  0.88538298  0.21077904  0.66094228     0.12300
N2559       N  0.85438920  0.20430091  0.59924445     0.61000
H2560       H  0.86182949  0.27794586  0.60094254     0.08400
O2561       O  0.85411643  0.40385389  0.67151562    -0.40400
O2562       O  0.83741942  0.43002605  0.64690848    -0.39600
O2563       O  0.89908458  0.32604481  0.58153552    -0.39600
O2564       O  0.91646079  0.30093060  0.60608829    -0.37300
O2565       O  0.83573141  0.19082196  0.60150942    -0.38200
O2566       O  0.86281092  0.20427222  0.58247079    -0.34400
O2567       O  0.88339595  0.28513235  0.67904247    -0.35800
O2568       O  0.91101352  0.29817100  0.66055302    -0.40100
C2569       C  0.98159582  0.02967856  0.61658316    -0.13800
C2570       C  0.98866998  0.00212026  0.62993918     0.16600
C2571       C  0.97381943  0.98624015  0.64318109     0.02900
C2572       C  0.95203272  0.99664319  0.64204672    -0.12300
C2573       C  0.94470364  0.02167449  0.62748305    -0.03300
C2574       C  0.95983255  0.03934699  0.61515089     0.02200
C2575       C  0.01155018  0.99011394  0.62933275     0.09000
N2576       N  0.98024302  0.95736313  0.65671282     0.65400
H2577       H  0.94054518  0.98252019  0.65146386     0.18300
N2578       N  0.95327333  0.06675412  0.60091933     0.75800
H2579       H  0.99302547  0.04312952  0.60684924     0.09800
C2580       C  0.02079142  0.97798001  0.61159967     0.03500
C2581       C  0.04296718  0.97206691  0.61048915    -0.05200
C2582       C  0.05638149  0.97732526  0.62684485    -0.23600
C2583       C  0.04699839  0.98788063  0.64489879     0.12700
C2584       C  0.02468014  0.99404377  0.64596488    -0.12800
N2585       N  0.00780196  0.97160078  0.59455465     0.64400
H2586       H  0.04972563  0.96311614  0.59663793     0.12300
N2587       N  0.05993612  0.99498612  0.66187926     0.61000
H2588       H  0.01773694  0.00383775  0.65958288     0.08400
O2589       O  0.94736180  0.09929467  0.60636231    -0.40400
O2590       O  0.95579824  0.06005026  0.58294066    -0.39600
O2591       O  0.97514657  0.96001702  0.67451428    -0.39600
O2592       O  0.98889947  0.92728631  0.65055316    -0.37300
O2593       O  0.05636041  0.97704098  0.67749804    -0.38200
O2594       O  0.07274194  0.02275877  0.66210951    -0.34400
O2595       O  0.01271409  0.98699605  0.57851668    -0.35800
O2596       O  0.99224990  0.94861172  0.59518731    -0.40100
C2597       C  0.86467188  0.02190390  0.73616606    -0.13800
C2598       C  0.87645501  0.98908960  0.74056175     0.16600
C2599       C  0.88566756  0.96834752  0.72499363     0.02900
C2600       C  0.88330951  0.98111286  0.70558615    -0.12300
C2601       C  0.87175132  0.01437878  0.70117269    -0.03300
C2602       C  0.86221307  0.03461227  0.71686054     0.02200
C2603       C  0.87751814  0.97580708  0.76133015     0.09000
N2604       N  0.89787539  0.93471668  0.72869154     0.65400
H2605       H  0.89076989  0.96501615  0.69393216     0.18300
N2606       N  0.85009105  0.06845978  0.71357733     0.75800
H2607       H  0.85700619  0.03763774  0.74784851     0.09800
C2608       C  0.88481544  0.99965209  0.77659906     0.03500
C2609       C  0.88360455  0.98757268  0.79617930    -0.05200
C2610       C  0.87519822  0.95183864  0.80107355    -0.23600
C2611       C  0.86799775  0.92794732  0.78567150     0.12700
C2612       C  0.86922468  0.94007997  0.76615893    -0.12800
N2613       N  0.89377149  0.03608663  0.77241388     0.64400
H2614       H  0.88931837  0.00634072  0.80761520     0.12300
N2615       N  0.85945210  0.89108245  0.78949072     0.61000
H2616       H  0.86316002  0.92169565  0.75470248     0.08400
O2617       O  0.85898340  0.10031523  0.71581257    -0.40400
O2618       O  0.82989773  0.06658733  0.71165287    -0.39600
O2619       O  0.89210049  0.90363080  0.72120942    -0.39600
O2620       O  0.91560584  0.93678385  0.73769977    -0.37300
O2621       O  0.83934748  0.88660490  0.79087839    -0.38200
O2622       O  0.87155831  0.86244938  0.78832794    -0.34400
O2623       O  0.88581493  0.06541091  0.78010934    -0.35800
O2624       O  0.91078331  0.03866770  0.76244659    -0.40100
C2625       C  0.36611223  0.88112690  0.52097672    -0.13800
C2626       C  0.37203171  0.85148232  0.50826909     0.16600
C2627       C  0.37830973  0.81643534  0.51642883     0.02900
C2628       C  0.37997233  0.81239339  0.53674395    -0.12300
C2629       C  0.37483714  0.84214548  0.54959843    -0.03300
C2630       C  0.36739055  0.87671539  0.54153207     0.02200
C2631       C  0.37438630  0.85771314  0.48670793     0.09000
N2632       N  0.38299670  0.78450022  0.50416362     0.65400
H2633       H  0.38502164  0.78522024  0.54254679     0.18300
N2634       N  0.36235587  0.90821602  0.55386514     0.75800
H2635       H  0.36147271  0.90831420  0.51493612     0.09800
C2636       C  0.35680100  0.86560927  0.47423140     0.03500
C2637       C  0.35946009  0.86426692  0.45372451    -0.05200
C2638       C  0.37953670  0.85515844  0.44535639    -0.23600
C2639       C  0.39749490  0.85084165  0.45799730     0.12700
C2640       C  0.39470751  0.85189016  0.47832466    -0.12800
N2641       N  0.33586756  0.87219653  0.48212941     0.64400
H2642       H  0.34546814  0.86784228  0.44439771     0.12300
N2643       N  0.41872561  0.84508373  0.45043103     0.61000
H2644       H  0.40851884  0.84707576  0.48774091     0.08400
O2645       O  0.34369005  0.92236630  0.55354179    -0.40400
O2646       O  0.37716199  0.92473687  0.56324674    -0.39600
O2647       O  0.39965920  0.76482623  0.50718685    -0.39600
O2648       O  0.36974236  0.77435064  0.49114075    -0.37300
O2649       O  0.42693974  0.86957483  0.43927338    -0.38200
O2650       O  0.43023805  0.81828294  0.45680865    -0.34400
O2651       O  0.32818339  0.90529462  0.48230280    -0.35800
O2652       O  0.32426130  0.84457282  0.48719535    -0.40100
C2653       C  0.27509413  0.87886759  0.61319534    -0.13800
C2654       C  0.26211127  0.86461380  0.62821341     0.16600
C2655       C  0.27155741  0.84285830  0.64323346     0.02900
C2656       C  0.29389247  0.83765871  0.64367315    -0.12300
C2657       C  0.30716636  0.85313967  0.62910847    -0.03300
C2658       C  0.29751018  0.87354831  0.61354422     0.02200
C2659       C  0.23900227  0.87497279  0.62902712     0.09000
N2660       N  0.25858476  0.82570933  0.65806530     0.65400
H2661       H  0.30090566  0.82139796  0.65553496     0.18300
N2662       N  0.31026553  0.89132621  0.59876564     0.75800
H2663       H  0.26791027  0.89581931  0.60168239     0.09800
C2664       C  0.23113555  0.89887673  0.64394803     0.03500
C2665       C  0.20886203  0.90355531  0.64623131    -0.05200
C2666       C  0.19421516  0.88587355  0.63349007    -0.23600
C2667       C  0.20220744  0.86329952  0.61802531     0.12700
C2668       C  0.22449893  0.85823254  0.61589008    -0.12800
N2669       N  0.24560354  0.91889192  0.65667598     0.64400
H2670       H  0.20294511  0.92154771  0.65788859     0.12300
N2671       N  0.18792459  0.84292410  0.60536453     0.61000
H2672       H  0.23047547  0.83956359  0.60454621     0.08400
O2673       O  0.32139437  0.92015247  0.60293240    -0.40400
O2674       O  0.30794591  0.88177777  0.58110226    -0.39600
O2675       O  0.24531985  0.80007676  0.65349929    -0.39600
O2676       O  0.26232635  0.83250478  0.67587509    -0.37300
O2677       O  0.17634190  0.81672276  0.61219452    -0.38200
O2678       O  0.18902747  0.84748289  0.58709142    -0.34400
O2679       O  0.26070147  0.93842789  0.64956224    -0.35800
O2680       O  0.24184217  0.92073918  0.67478326    -0.40100
C2681       C  0.35639309  0.35630312  0.51935469    -0.13800
C2682       C  0.37600958  0.35782894  0.50924196     0.16600
C2683       C  0.39543815  0.35838128  0.52004152     0.02900
C2684       C  0.39490871  0.35356231  0.54040972    -0.12300
C2685       C  0.37536957  0.34939304  0.55051730    -0.03300
C2686       C  0.35584838  0.35185435  0.53984342     0.02200
C2687       C  0.37622981  0.35279150  0.48756720     0.09000
N2688       N  0.41580401  0.36306199  0.51043308     0.65400
H2689       H  0.40997558  0.35246576  0.54844245     0.18300
N2690       N  0.33547829  0.34614144  0.54912972     0.75800
H2691       H  0.34144974  0.35553411  0.51113190     0.09800
C2692       C  0.38593375  0.32052390  0.47918479     0.03500
C2693       C  0.38774615  0.31769149  0.45884212    -0.05200
C2694       C  0.37937244  0.34560782  0.44618874    -0.23600
C2695       C  0.36906869  0.37758703  0.45461413     0.12700
C2696       C  0.36755508  0.38066568  0.47517606    -0.12800
N2697       N  0.39327373  0.28961414  0.49112449     0.64400
H2698       H  0.39511211  0.29236176  0.45290381     0.12300
N2699       N  0.36060460  0.40761254  0.44274628     0.61000
H2700       H  0.36013149  0.40553884  0.48155509     0.08400
O2701       O  0.33219124  0.31626994  0.55881291    -0.40400
O2702       O  0.31968839  0.36688449  0.54452822    -0.39600
O2703       O  0.41801541  0.38807811  0.49739877    -0.39600
O2704       O  0.43209872  0.34467605  0.51613882    -0.37300
O2705       O  0.34250082  0.42188618  0.44675601    -0.38200
O2706       O  0.37266988  0.42429297  0.43067917    -0.34400
O2707       O  0.38081379  0.27503337  0.50358857    -0.35800
O2708       O  0.41104320  0.27371847  0.48751213    -0.40100
C2709       C  0.36590952  0.52112933  0.61283865    -0.13800
C2710       C  0.37905798  0.54161386  0.62582185     0.16600
C2711       C  0.39200934  0.52184202  0.63928453     0.02900
C2712       C  0.39116738  0.48219452  0.64006215    -0.12300
C2713       C  0.37764835  0.46156867  0.62741699    -0.03300
C2714       C  0.36494354  0.48139468  0.61363283     0.02200
C2715       C  0.37921577  0.58362688  0.62497857     0.09000
N2716       N  0.40650843  0.54171201  0.65188472     0.65400
H2717       H  0.40113975  0.46741899  0.65062951     0.18300
N2718       N  0.34990445  0.46184318  0.60135022     0.75800
H2719       H  0.35582918  0.53618826  0.60246421     0.09800
C2720       C  0.38837200  0.60236574  0.60893874     0.03500
C2721       C  0.38739564  0.64182483  0.60773185    -0.05200
C2722       C  0.37734107  0.66370977  0.62234681    -0.23600
C2723       C  0.36824906  0.64489617  0.63860299     0.12700
C2724       C  0.36943055  0.60507637  0.63984367    -0.12800
N2725       N  0.39925132  0.58160445  0.59398235     0.64400
H2726       H  0.39495307  0.65544701  0.59531757     0.12300
N2727       N  0.35679088  0.66542516  0.65332479     0.61000
H2728       H  0.36206078  0.59071417  0.65212529     0.08400
O2729       O  0.35156583  0.46390883  0.58299396    -0.40400
O2730       O  0.33363516  0.44602146  0.60878005    -0.39600
O2731       O  0.40079293  0.55035374  0.66900448    -0.39600
O2732       O  0.42573618  0.54706215  0.64663627    -0.37300
O2733       O  0.33979384  0.68309897  0.64886090    -0.38200
O2734       O  0.36189186  0.66164836  0.67109586    -0.34400
O2735       O  0.39024586  0.57644050  0.57763346    -0.35800
O2736       O  0.41876325  0.57255925  0.59626240    -0.40100
C2737       C  0.38838892  0.10194810  0.62826627    -0.13800
C2738       C  0.37134386  0.08375201  0.61865532     0.16600
C2739       C  0.35526702  0.10543228  0.60941918     0.02900
C2740       C  0.35672538  0.14497939  0.60948702    -0.12300
C2741       C  0.37389519  0.16332949  0.61894075    -0.03300
C2742       C  0.38999470  0.14157054  0.62834340     0.02200
C2743       C  0.37013571  0.04206551  0.61921353     0.09000
N2744       N  0.33758987  0.08755246  0.59968819     0.65400
H2745       H  0.34448251  0.16147215  0.60201318     0.18300
N2746       N  0.40867003  0.15896265  0.63688932     0.75800
H2747       H  0.40076007  0.08513019  0.63535617     0.09800
C2748       C  0.38394007  0.01924891  0.60792115     0.03500
C2749       C  0.38327698  0.97973210  0.60990869    -0.05200
C2750       C  0.36928226  0.96258680  0.62338859    -0.23600
C2751       C  0.35507325  0.98580203  0.63431700     0.12700
C2752       C  0.35564601  0.02511224  0.63209866    -0.12800
N2753       N  0.39895821  0.03593806  0.59468470     0.64400
H2754       H  0.39429800  0.96256307  0.60141807     0.12300
N2755       N  0.33999985  0.97003077  0.64783062     0.61000
H2756       H  0.34496695  0.04261861  0.64078026     0.08400
O2757       O  0.41959068  0.18228824  0.62706993    -0.40400
O2758       O  0.41636596  0.14620578  0.65267561    -0.39600
O2759       O  0.32005720  0.08266673  0.60862363    -0.39600
O2760       O  0.33860476  0.08095804  0.58157817    -0.37300
O2761       O  0.32215043  0.95764037  0.64171142    -0.38200
O2762       O  0.34301166  0.97411312  0.66596892    -0.34400
O2763       O  0.41783755  0.04334623  0.60039678    -0.35800
O2764       O  0.39435082  0.03830725  0.57674363    -0.40100
C2765       C  0.27268246  0.36226460  0.61676607    -0.13800
C2766       C  0.26258369  0.37509755  0.63385943     0.16600
C2767       C  0.27511892  0.38069842  0.65080327     0.02900
C2768       C  0.29721412  0.37301731  0.65048759    -0.12300
C2769       C  0.30759352  0.36021704  0.63339290    -0.03300
C2770       C  0.29490882  0.35464408  0.61637176     0.02200
C2771       C  0.23871525  0.37889077  0.63443717     0.09000
N2772       N  0.26569967  0.39521976  0.66835108     0.65400
H2773       H  0.30634356  0.37814318  0.66375034     0.18300
N2774       N  0.30408332  0.34070191  0.59864295     0.75800
H2775       H  0.26310667  0.35692990  0.60377675     0.09800
C2776       C  0.22723628  0.40158929  0.62095949     0.03500
C2777       C  0.20460288  0.40269144  0.62160635    -0.05200
C2778       C  0.19314414  0.38216803  0.63579815    -0.23600
C2779       C  0.20473374  0.35895165  0.64900989     0.12700
C2780       C  0.22721960  0.35759542  0.64820767    -0.12800
N2781       N  0.23836018  0.42481781  0.60711272     0.64400
H2782       H  0.19600409  0.42084959  0.61146468     0.12300
N2783       N  0.19388014  0.33522448  0.66279089     0.61000
H2784       H  0.23577488  0.33898556  0.65816413     0.08400
O2785       O  0.30175171  0.35943938  0.58307581    -0.40400
O2786       O  0.31059282  0.30685852  0.59776602    -0.39600
O2787       O  0.26670755  0.37627403  0.68397780    -0.39600
O2788       O  0.25830701  0.42852686  0.66870167    -0.37300
O2789       O  0.18347846  0.30669005  0.65688140    -0.38200
O2790       O  0.19676861  0.34013525  0.68089164    -0.34400
O2791       O  0.23345041  0.42329323  0.58920642    -0.35800
O2792       O  0.25171981  0.44930521  0.61296713    -0.40100
C2793       C  0.36214103  0.61609407  0.97690452    -0.13800
C2794       C  0.37678022  0.63443649  0.98948942     0.16600
C2795       C  0.39232887  0.65874489  0.98122887     0.02900
C2796       C  0.39316327  0.66372438  0.96096765    -0.12300
C2797       C  0.37818232  0.64658627  0.94819138    -0.03300
C2798       C  0.36227572  0.62249138  0.95647515     0.02200
C2799       C  0.37619348  0.62807111  0.01116117     0.09000
N2800       N  0.40692469  0.67998345  0.99328017     0.65400
H2801       H  0.40539270  0.68263446  0.95531901     0.18300
N2802       N  0.34578794  0.60518276  0.94475940     0.75800
H2803       H  0.35017970  0.59725447  0.98306229     0.09800
C2804       C  0.35729897  0.63353796  0.02234754     0.03500
C2805       C  0.35840771  0.63282322  0.04292855    -0.05200
C2806       C  0.37819250  0.62795709  0.05262509    -0.23600
C2807       C  0.39668646  0.61966502  0.04147839     0.12700
C2808       C  0.39544426  0.61914435  0.02101085    -0.12800
N2809       N  0.33732514  0.64329317  0.01316382     0.64400
H2810       H  0.34413587  0.63970423  0.05130198     0.12300
N2811       N  0.41701763  0.61288233  0.05076837     0.61000
H2812       H  0.40990946  0.61332356  0.01270040     0.08400
O2813       O  0.33338377  0.62573011  0.93466408    -0.40400
O2814       O  0.34042444  0.57127856  0.94803626    -0.39600
O2815       O  0.42686369  0.67955493  0.98972311    -0.39600
O2816       O  0.39974058  0.70189811  0.00631986    -0.37300
O2817       O  0.41923261  0.58504151  0.06217412    -0.38200
O2818       O  0.43330178  0.63213327  0.04599387    -0.34400
O2819       O  0.32096190  0.62268345  0.01568073    -0.35800
O2820       O  0.33537092  0.67467244  0.00448775    -0.40100
C2821       C  0.22990806  0.64190872  0.86020405    -0.13800
C2822       C  0.24035569  0.61995804  0.87437820     0.16600
C2823       C  0.22818922  0.59705644  0.88701043     0.02900
C2824       C  0.20570611  0.59587726  0.88505505    -0.12300
C2825       C  0.19514125  0.61752144  0.87064767    -0.03300
C2826       C  0.20749766  0.64131880  0.85837353     0.02200
C2827       C  0.26408663  0.62064002  0.87492098     0.09000
N2828       N  0.23851894  0.57423620  0.90151231     0.65400
H2829       H  0.19653830  0.57745372  0.89458884     0.18300
N2830       N  0.19752183  0.66604250  0.84444769     0.75800
H2831       H  0.23926571  0.65990915  0.85059290     0.09800
C2832       C  0.27588315  0.60024977  0.86091903     0.03500
C2833       C  0.29785150  0.60737572  0.85860798    -0.05200
C2834       C  0.30852041  0.63430487  0.87027719    -0.23600
C2835       C  0.29677192  0.65389570  0.88482052     0.12700
C2836       C  0.27465813  0.64678784  0.88701857    -0.12800
N2837       N  0.26558745  0.57268068  0.84872098     0.64400
H2838       H  0.30667800  0.59134475  0.84773659     0.12300
N2839       N  0.30658498  0.68302485  0.89637870     0.61000
H2840       H  0.26544327  0.66326980  0.89743397     0.08400
O2841       O  0.18715699  0.69463399  0.85029941    -0.40400
O2842       O  0.20148580  0.66229039  0.82645884    -0.39600
O2843       O  0.24307950  0.58829440  0.91797638    -0.39600
O2844       O  0.24064526  0.53907946  0.89877461    -0.37300
O2845       O  0.31406255  0.71216491  0.88813739    -0.38200
O2846       O  0.30464327  0.68260385  0.91474365    -0.34400
O2847       O  0.26590083  0.57635666  0.83036863    -0.35800
O2848       O  0.25807520  0.54277747  0.85616588    -0.40100
C2849       C  0.36538839  0.71492149  0.76543165    -0.13800
C2850       C  0.38090079  0.74193449  0.76014946     0.16600
C2851       C  0.39324299  0.75906140  0.77520654     0.02900
C2852       C  0.38999369  0.74867545  0.79488467    -0.12300
C2853       C  0.37475070  0.72101616  0.80016500    -0.03300
C2854       C  0.36221218  0.70438804  0.78502527     0.02200
C2855       C  0.38244023  0.75432487  0.73915852     0.09000
N2856       N  0.40958845  0.78630773  0.77073432     0.65400
H2857       H  0.39993156  0.76173237  0.80605728     0.18300
N2858       N  0.34593245  0.67695433  0.78919194     0.75800
H2859       H  0.35523993  0.70237758  0.75425469     0.09800
C2860       C  0.38453341  0.72822954  0.72349864     0.03500
C2861       C  0.38391067  0.74104847  0.70393638    -0.05200
C2862       C  0.38134326  0.77966331  0.69950384    -0.23600
C2863       C  0.37982903  0.80574843  0.71523936     0.12700
C2864       C  0.38006896  0.79287449  0.73465716    -0.12800
N2865       N  0.38732699  0.68862321  0.72721814     0.64400
H2866       H  0.38508697  0.72061807  0.69216091     0.12300
N2867       N  0.37831195  0.84567796  0.71177406     0.61000
H2868       H  0.37817480  0.81330801  0.74635765     0.08400
O2869       O  0.34944299  0.64233699  0.78585223    -0.40400
O2870       O  0.32716485  0.68775699  0.79353072    -0.39600
O2871       O  0.41001807  0.81769234  0.77958477    -0.39600
O2872       O  0.42475965  0.77767465  0.75932193    -0.37300
O2873       O  0.36262397  0.86426363  0.71851253    -0.38200
O2874       O  0.39378458  0.86301312  0.70386643    -0.34400
O2875       O  0.37489369  0.66478484  0.71931981    -0.35800
O2876       O  0.40314915  0.67722948  0.73724804    -0.40100
C2877       C  0.39173759  0.15801181  0.98195122    -0.13800
C2878       C  0.37872349  0.12812680  0.98848421     0.16600
C2879       C  0.36636868  0.10795679  0.97453492     0.02900
C2880       C  0.36727995  0.11818573  0.95454688    -0.12300
C2881       C  0.38051232  0.14807612  0.94799863    -0.03300
C2882       C  0.39276310  0.16811160  0.96217808     0.02200
C2883       C  0.37735587  0.12130908  0.01011959     0.09000
N2884       N  0.35329122  0.07650798  0.98034309     0.65400
H2885       H  0.35779328  0.10226952  0.94406601     0.18300
N2886       N  0.40581354  0.19990667  0.95698382     0.75800
H2887       H  0.40082808  0.17460460  0.99245761     0.09800
C2888       C  0.39631917  0.11802487  0.02149207     0.03500
C2889       C  0.39544264  0.12297401  0.04183680    -0.05200
C2890       C  0.37587799  0.12982633  0.05144745    -0.23600
C2891       C  0.35664250  0.12950170  0.04038231     0.12700
C2892       C  0.35751770  0.12537191  0.01986368    -0.12800
N2893       N  0.41671547  0.11097172  0.01243367     0.64400
H2894       H  0.41030769  0.12250706  0.05019354     0.12300
N2895       N  0.33642532  0.13748924  0.04944208     0.61000
H2896       H  0.34282327  0.12839835  0.01141947     0.08400
O2897       O  0.39738384  0.23234898  0.95562050    -0.40400
O2898       O  0.42605428  0.19666513  0.95678447    -0.39600
O2899       O  0.33413305  0.07379369  0.97427780    -0.39600
O2900       O  0.36139627  0.04980916  0.99020213    -0.37300
O2901       O  0.33172378  0.17108641  0.05410185    -0.38200
O2902       O  0.32227938  0.11193347  0.05057475    -0.34400
O2903       O  0.43286895  0.13103474  0.01676403    -0.35800
O2904       O  0.41899970  0.08285543  0.00121661    -0.40100
C2905       C  0.37742237  0.96908502  0.85782652    -0.13800
C2906       C  0.37227479  0.95272876  0.87587576     0.16600
C2907       C  0.36866943  0.97643279  0.89216424     0.02900
C2908       C  0.36989266  0.01591716  0.89004214    -0.12300
C2909       C  0.37450329  0.03236631  0.87181857    -0.03300
C2910       C  0.37880998  0.00842175  0.85566952     0.02200
C2911       C  0.37305422  0.91086420  0.87772073     0.09000
N2912       N  0.36299255  0.96081432  0.91074952     0.65400
H2913       H  0.36636939  0.03377916  0.90252623     0.18300
N2914       N  0.38557978  0.02348296  0.83722140     0.75800
H2915       H  0.38120858  0.95106281  0.84546615     0.09800
C2916       C  0.36071297  0.88715547  0.86542266     0.03500
C2917       C  0.36366618  0.84778111  0.86599552    -0.05200
C2918       C  0.37862412  0.83140043  0.87889261    -0.23600
C2919       C  0.39117797  0.85530792  0.89105692     0.12700
C2920       C  0.38813097  0.89457538  0.89046875    -0.12800
N2921       N  0.34463047  0.90268621  0.85275125     0.64400
H2922       H  0.35372539  0.82990147  0.85677444     0.12300
N2923       N  0.40786112  0.84033959  0.90334446     0.61000
H2924       H  0.39826586  0.91260956  0.89943857     0.08400
O2925       O  0.37633347  0.01312902  0.82164891    -0.40400
O2926       O  0.40239785  0.04348437  0.83625420    -0.39600
O2927       O  0.37446516  0.96767787  0.92559840    -0.39600
O2928       O  0.34538342  0.94339541  0.91272114    -0.37300
O2929       O  0.42378921  0.82361160  0.89581561    -0.38200
O2930       O  0.40789837  0.84744521  0.92143573    -0.34400
O2931       O  0.34662721  0.89983673  0.83445132    -0.35800
O2932       O  0.32732388  0.91536566  0.85984246    -0.40100
C2933       C  0.36954595  0.47446954  0.88697801    -0.13800
C2934       C  0.37938818  0.45309192  0.87214091     0.16600
C2935       C  0.38862050  0.47210314  0.85606232     0.02900
C2936       C  0.38718004  0.51170370  0.85485312    -0.12300
C2937       C  0.37747888  0.53310884  0.86978643    -0.03300
C2938       C  0.36876189  0.51406318  0.88609277     0.02200
C2939       C  0.37920469  0.41099803  0.87351548     0.09000
N2940       N  0.40014315  0.45176665  0.84125121     0.65400
H2941       H  0.39425749  0.52594466  0.84239130     0.18300
N2942       N  0.35837276  0.53427059  0.90155704     0.75800
H2943       H  0.36200015  0.46024349  0.89921434     0.09800
C2944       C  0.38591580  0.39254564  0.89076393     0.03500
C2945       C  0.38406038  0.35323064  0.89223425    -0.05200
C2946       C  0.37607714  0.33109050  0.87668077    -0.23600
C2947       C  0.36929062  0.34953543  0.85938456     0.12700
C2948       C  0.37092505  0.38918569  0.85797409    -0.12800
N2949       N  0.39531026  0.41318206  0.90672051     0.64400
H2950       H  0.38983109  0.33983604  0.90550979     0.12300
N2951       N  0.35991218  0.32878164  0.84351311     0.61000
H2952       H  0.36512344  0.40314721  0.84486566     0.08400
O2953       O  0.36549534  0.53157798  0.91880206    -0.40400
O2954       O  0.34075078  0.55109873  0.89842959    -0.39600
O2955       O  0.39685066  0.45894780  0.82340903    -0.39600
O2956       O  0.41505565  0.42920312  0.84598771    -0.37300
O2957       O  0.34241826  0.31123159  0.84598399    -0.38200
O2958       O  0.36760139  0.33178304  0.82652001    -0.34400
O2959       O  0.38879520  0.40770045  0.92395968    -0.35800
O2960       O  0.41116936  0.43481406  0.90381485    -0.40100
C2961       C  0.26984352  0.15005244  0.86097674    -0.13800
C2962       C  0.26205073  0.13263870  0.87796166     0.16600
C2963       C  0.27668634  0.12287283  0.89299481     0.02900
C2964       C  0.29882186  0.12964941  0.89039417    -0.12300
C2965       C  0.30673079  0.14492270  0.87279379    -0.03300
C2966       C  0.29183552  0.15633451  0.85827036     0.02200
C2967       C  0.23873639  0.12327868  0.87874095     0.09000
N2968       N  0.26958169  0.10381674  0.91031350     0.65400
H2969       H  0.30997856  0.12049447  0.90165959     0.18300
N2970       N  0.29874583  0.17425930  0.84060848     0.75800
H2971       H  0.25869360  0.15841793  0.84953020     0.09800
C2972       C  0.22471771  0.13715703  0.89338967     0.03500
C2973       C  0.20257087  0.12872752  0.89224682    -0.05200
C2974       C  0.19406718  0.10837458  0.87631693    -0.23600
C2975       C  0.20825657  0.09380864  0.86213498     0.12700
C2976       C  0.23028563  0.10110066  0.86354080    -0.12800
N2977       N  0.23229667  0.16201456  0.90854627     0.64400
H2978       H  0.19173012  0.14074126  0.90298889     0.12300
N2979       N  0.20049121  0.07179782  0.84605442     0.61000
H2980       H  0.24091510  0.08986564  0.85239852     0.08400
O2981       O  0.30610034  0.20757510  0.84112474    -0.40400
O2982       O  0.29529797  0.15852566  0.82432053    -0.39600
O2983       O  0.25958245  0.07278490  0.90897932    -0.39600
O2984       O  0.27550953  0.11553582  0.92692027    -0.37300
O2985       O  0.19365153  0.03861988  0.84896082    -0.38200
O2986       O  0.20307315  0.08353305  0.82878906    -0.34400
O2987       O  0.24437858  0.18961018  0.90439027    -0.35800
O2988       O  0.22474089  0.15941790  0.92561497    -0.40100
C2989       C  0.39192596  0.25333145  0.77227724    -0.13800
C2990       C  0.37708952  0.23847800  0.75873934     0.16600
C2991       C  0.36142286  0.21277110  0.76539852     0.02900
C2992       C  0.36076347  0.20245772  0.78522793    -0.12300
C2993       C  0.37553144  0.21727870  0.79900205    -0.03300
C2994       C  0.39146915  0.24272132  0.79215027     0.02200
C2995       C  0.37780454  0.25061172  0.73780397     0.09000
N2996       N  0.34556689  0.19787783  0.75227730     0.65400
H2997       H  0.34831572  0.18294185  0.78985028     0.18300
N2998       N  0.40782698  0.25696231  0.80491884     0.75800
H2999       H  0.40421425  0.27284150  0.76729402     0.09800
C3000       C  0.37262857  0.28803589  0.73250760     0.03500
C3001       C  0.37266569  0.29885078  0.71277981    -0.05200
C3002       C  0.37798167  0.27310783  0.69778233    -0.23600
C3003       C  0.38399282  0.23586776  0.70315670     0.12700
C3004       C  0.38362622  0.22484786  0.72300371    -0.12800
N3005       N  0.36667385  0.31518575  0.74703599     0.64400
H3006       H  0.36826889  0.32774428  0.70918396     0.12300
N3007       N  0.39017691  0.20878949  0.68869709     0.61000
H3008       H  0.38790759  0.19604555  0.72688899     0.08400
O3009       O  0.40858520  0.29190362  0.80875782    -0.40400
O3010       O  0.42358311  0.23607460  0.80939618    -0.39600
O3011       O  0.34529889  0.16292438  0.74840080    -0.39600
O3012       O  0.33047554  0.21884358  0.74624732    -0.37300
O3013       O  0.40988611  0.20265328  0.68554349    -0.38200
O3014       O  0.37613709  0.18782492  0.68085669    -0.34400
O3015       O  0.37910349  0.34243387  0.75097478    -0.35800
O3016       O  0.34837118  0.31344187  0.75496086    -0.40100
C3017       C  0.60841060  0.63512603  0.51974093    -0.13800
C3018       C  0.62889106  0.62996738  0.51148302     0.16600
C3019       C  0.64700182  0.62843932  0.52399919     0.02900
C3020       C  0.64446383  0.63358282  0.54426175    -0.12300
C3021       C  0.62412378  0.64081967  0.55240971    -0.03300
C3022       C  0.60591465  0.64082075  0.53995412     0.02200
C3023       C  0.63134300  0.63322084  0.48983511     0.09000
N3024       N  0.66813344  0.62275061  0.51622580     0.65400
H3025       H  0.65860955  0.63340471  0.55358803     0.18300
N3026       N  0.58479835  0.64706916  0.54757449     0.75800
H3027       H  0.59437998  0.63680138  0.51031005     0.09800
C3028       C  0.62158463  0.60749889  0.47665440     0.03500
C3029       C  0.62138203  0.61542985  0.45642747    -0.05200
C3030       C  0.63080264  0.64868364  0.44913211    -0.23600
C3031       C  0.64113240  0.67360111  0.46228242     0.12700
C3032       C  0.64139093  0.66569533  0.48235362    -0.12800
N3033       N  0.61162704  0.57357788  0.48365041     0.64400
H3034       H  0.61321332  0.59627118  0.44648842     0.12300
N3035       N  0.65079731  0.70787665  0.45546172     0.61000
H3036       H  0.64870129  0.68594576  0.49227490     0.08400
O3037       O  0.57702219  0.68010872  0.54769929    -0.40400
O3038       O  0.57270438  0.61913470  0.55098833    -0.39600
O3039       O  0.68298196  0.64605299  0.52003083    -0.39600
O3040       O  0.67234792  0.59312088  0.50663204    -0.37300
O3041       O  0.64154519  0.73920707  0.45837587    -0.38200
O3042       O  0.66977410  0.70732709  0.44891470    -0.34400
O3043       O  0.59244926  0.56592558  0.47892722    -0.35800
O3044       O  0.62260880  0.54955022  0.49303407    -0.40100
C3045       C  0.73157201  0.64989927  0.63868005    -0.13800
C3046       C  0.73987152  0.61977359  0.62759247     0.16600
C3047       C  0.72558188  0.59739047  0.61629738     0.02900
C3048       C  0.70344216  0.60587162  0.61634782    -0.12300
C3049       C  0.69510672  0.63474290  0.62829625    -0.03300
C3050       C  0.70944312  0.65752945  0.63914256     0.02200
C3051       C  0.76342891  0.61209416  0.62863747     0.09000
N3052       N  0.73296931  0.56448323  0.60592754     0.65400
H3053       H  0.69247918  0.58779216  0.60825389     0.18300
N3054       N  0.70174471  0.68877530  0.65051403     0.75800
H3055       H  0.74242479  0.66762237  0.64710626     0.09800
C3056       C  0.77676918  0.61143014  0.61190528     0.03500
C3057       C  0.79897055  0.60459216  0.61409318    -0.05200
C3058       C  0.80838690  0.59953668  0.63268049    -0.23600
C3059       C  0.79478003  0.59937977  0.64926485     0.12700
C3060       C  0.77266715  0.60570579  0.64707397    -0.12800
N3061       N  0.76831749  0.61947667  0.59278550     0.64400
H3062       H  0.80907008  0.60523857  0.60120316     0.12300
N3063       N  0.80304215  0.59261529  0.66849278     0.61000
H3064       H  0.76254077  0.60552268  0.65996466     0.08400
O3065       O  0.69094813  0.71477175  0.64243913    -0.40400
O3066       O  0.70725200  0.69211151  0.66821235    -0.39600
O3067       O  0.74514424  0.54082249  0.61430713    -0.39600
O3068       O  0.72519967  0.55652836  0.58934518    -0.37300
O3069       O  0.80776896  0.55932766  0.67370243    -0.38200
O3070       O  0.80303135  0.61894546  0.68098410    -0.34400
O3071       O  0.75628750  0.64786386  0.59011393    -0.35800
O3072       O  0.77475781  0.60078946  0.57817970    -0.40100
C3073       C  0.52243503  0.71767234  0.63559664    -0.13800
C3074       C  0.51368940  0.74445160  0.62265798     0.16600
C3075       C  0.52732097  0.76264613  0.60919426     0.02900
C3076       C  0.54916689  0.75292475  0.60840786    -0.12300
C3077       C  0.55814870  0.72583577  0.62119828    -0.03300
C3078       C  0.54449146  0.70849511  0.63511692     0.02200
C3079       C  0.49002993  0.75046416  0.62183857     0.09000
N3080       N  0.51921684  0.79148008  0.59640006     0.65400
H3081       H  0.55926697  0.76747841  0.59792381     0.18300
N3082       N  0.55252705  0.68064658  0.64841650     0.75800
H3083       H  0.51199250  0.70326302  0.64585729     0.09800
C3084       C  0.47786209  0.73510380  0.60636377     0.03500
C3085       C  0.45586404  0.74316142  0.60484883    -0.05200
C3086       C  0.44533020  0.76610408  0.61870153    -0.23600
C3087       C  0.45762622  0.78172670  0.63421021     0.12700
C3088       C  0.47978114  0.77352138  0.63571394    -0.12800
N3089       N  0.48757003  0.71032457  0.59235514     0.64400
H3090       H  0.44685200  0.73025364  0.59300020     0.12300
N3091       N  0.44814841  0.80723945  0.64798712     0.61000
H3092       H  0.48916949  0.78612022  0.64740908     0.08400
O3093       O  0.54953215  0.64595185  0.64488577    -0.40400
O3094       O  0.55927480  0.69071133  0.66504980    -0.39600
O3095       O  0.51165525  0.82171012  0.60347211    -0.39600
O3096       O  0.52223545  0.78902822  0.57819841    -0.37300
O3097       O  0.44895954  0.79996107  0.66604118    -0.38200
O3098       O  0.44129457  0.83909365  0.64233437    -0.34400
O3099       O  0.49396183  0.67791597  0.59758759    -0.35800
O3100       O  0.48711367  0.71865683  0.57441250    -0.40100
C3101       C  0.60919580  0.15670815  0.51771920    -0.13800
C3102       C  0.62201309  0.12751724  0.51020170     0.16600
C3103       C  0.63359710  0.10440309  0.52336403     0.02900
C3104       C  0.63181152  0.11039420  0.54371568    -0.12300
C3105       C  0.61871085  0.13955204  0.55129451    -0.03300
C3106       C  0.60758212  0.16320299  0.53783071     0.02200
C3107       C  0.62349214  0.12382547  0.48848650     0.09000
N3108       N  0.64684002  0.07431003  0.51628841     0.65400
H3109       H  0.64065441  0.09206782  0.55359085     0.18300
N3110       N  0.59518355  0.19508534  0.54415747     0.75800
H3111       H  0.60073552  0.17548686  0.50777025     0.09800
C3112       C  0.60455264  0.11959314  0.47723194     0.03500
C3113       C  0.60477718  0.12759524  0.45716740    -0.05200
C3114       C  0.62375232  0.13891784  0.44777425    -0.23600
C3115       C  0.64310856  0.14057260  0.45865960     0.12700
C3116       C  0.64284741  0.13280902  0.47889119    -0.12800
N3117       N  0.58472007  0.10882136  0.48626349     0.64400
H3118       H  0.58985479  0.12596870  0.44893745     0.12300
N3119       N  0.66251951  0.15430210  0.44991794     0.61000
H3120       H  0.65739534  0.13711242  0.48739848     0.08400
O3121       O  0.57497575  0.19484888  0.54212325    -0.40400
O3122       O  0.60460450  0.22556476  0.54866551    -0.39600
O3123       O  0.66707724  0.07692225  0.51736286    -0.39600
O3124       O  0.63833104  0.04369722  0.51068826    -0.37300
O3125       O  0.66358465  0.18817066  0.44406599    -0.38200
O3126       O  0.67936599  0.13430645  0.45034548    -0.34400
O3127       O  0.56842916  0.13009012  0.48500108    -0.35800
O3128       O  0.58305196  0.07680988  0.49433492    -0.40100
C3129       C  0.64237526  0.88061207  0.62026454    -0.13800
C3130       C  0.62513937  0.89815890  0.62993096     0.16600
C3131       C  0.60973704  0.87545851  0.63967168     0.02900
C3132       C  0.61194898  0.83582144  0.63941676    -0.12300
C3133       C  0.62873513  0.81836794  0.62907686    -0.03300
C3134       C  0.64437664  0.84106390  0.61984269     0.02200
C3135       C  0.62422325  0.94024476  0.63022905     0.09000
N3136       N  0.59119290  0.89196913  0.64886253     0.65400
H3137       H  0.59958207  0.81845475  0.64607849     0.18300
N3138       N  0.66254095  0.82424739  0.61029011     0.75800
H3139       H  0.65453544  0.89786354  0.61322645     0.09800
C3140       C  0.62536380  0.96077539  0.64790655     0.03500
C3141       C  0.62525057  0.00043990  0.64740201    -0.05200
C3142       C  0.62465431  0.02056330  0.62960913    -0.23600
C3143       C  0.62300975  0.99991256  0.61196862     0.12700
C3144       C  0.62271327  0.96011145  0.61246131    -0.12800
N3145       N  0.62749654  0.94193567  0.66641503     0.64400
H3146       H  0.62628146  0.01565100  0.66114137     0.12300
N3147       N  0.62262547  0.01866680  0.59343297     0.61000
H3148       H  0.62180020  0.94452063  0.59882571     0.08400
O3149       O  0.66814206  0.83545122  0.59353285    -0.40400
O3150       O  0.67419634  0.80069591  0.61933287    -0.39600
O3151       O  0.58054950  0.91748424  0.64022415    -0.39600
O3152       O  0.58400230  0.87818203  0.66457724    -0.37300
O3153       O  0.63933679  0.03506804  0.58725807    -0.38200
O3154       O  0.60669931  0.01440169  0.58213534    -0.34400
O3155       O  0.64207049  0.91746144  0.66895778    -0.35800
O3156       O  0.61650976  0.95283770  0.68087192    -0.40100
C3157       C  0.64837334  0.45904021  0.63177879    -0.13800
C3158       C  0.63187837  0.44137261  0.62118442     0.16600
C3159       C  0.61619121  0.46395730  0.61162131     0.02900
C3160       C  0.61751859  0.50370445  0.61289017    -0.12300
C3161       C  0.63370191  0.52136198  0.62403683    -0.03300
C3162       C  0.64951056  0.49849381  0.63321435     0.02200
C3163       C  0.63174787  0.39932155  0.62017487     0.09000
N3164       N  0.59833290  0.44711371  0.60141244     0.65400
H3165       H  0.60511244  0.52081076  0.60605265     0.18300
N3166       N  0.66714756  0.51487804  0.64373215     0.75800
H3167       H  0.66067181  0.44197888  0.63882779     0.09800
C3168       C  0.63318309  0.37987208  0.60222113     0.03500
C3169       C  0.63198177  0.34023057  0.60199944    -0.05200
C3170       C  0.62988606  0.31894922  0.61937845    -0.23600
C3171       C  0.62918950  0.33872636  0.63736293     0.12700
C3172       C  0.63001567  0.37844867  0.63756505    -0.12800
N3173       N  0.63614961  0.39984725  0.58414406     0.64400
H3174       H  0.63282633  0.32607024  0.58796902     0.12300
N3175       N  0.62721051  0.31920193  0.65555216     0.61000
H3176       H  0.62905793  0.39319598  0.65144357     0.08400
O3177       O  0.68222648  0.53071811  0.63450021    -0.40400
O3178       O  0.66921619  0.50872894  0.66182005    -0.39600
O3179       O  0.58832449  0.41949834  0.60880587    -0.39600
O3180       O  0.59109152  0.46227320  0.58601643    -0.37300
O3181       O  0.64380165  0.30577963  0.66370678    -0.38200
O3182       O  0.60981260  0.32125913  0.66498567    -0.34400
O3183       O  0.65087667  0.42431038  0.58261105    -0.35800
O3184       O  0.62555156  0.39037633  0.56913374    -0.40100
C3185       C  0.72832270  0.14525297  0.63450702    -0.13800
C3186       C  0.73583793  0.11394786  0.62387428     0.16600
C3187       C  0.72104818  0.09185125  0.61301294     0.02900
C3188       C  0.69902434  0.10103433  0.61354249    -0.12300
C3189       C  0.69145128  0.13078389  0.62534600    -0.03300
C3190       C  0.70638609  0.15377656  0.63535190     0.02200
C3191       C  0.75898531  0.10411911  0.62562841     0.09000
N3192       N  0.72779851  0.05849016  0.60271833     0.65400
H3193       H  0.68761393  0.08283804  0.60604470     0.18300
N3194       N  0.69945619  0.18573346  0.64655864     0.75800
H3195       H  0.73960327  0.16279454  0.64256973     0.09800
C3196       C  0.77300191  0.10239835  0.60941345     0.03500
C3197       C  0.79502918  0.09534126  0.61251595    -0.05200
C3198       C  0.80348034  0.09097206  0.63152613    -0.23600
C3199       C  0.78908208  0.09078322  0.64752886     0.12700
C3200       C  0.76719129  0.09748177  0.64441944    -0.12800
N3201       N  0.76546905  0.10993186  0.58994594     0.64400
H3202       H  0.80575996  0.09570233  0.60005074     0.12300
N3203       N  0.79635017  0.08401350  0.66709172     0.61000
H3204       H  0.75644120  0.09781195  0.65688905     0.08400
O3205       O  0.69190568  0.21450332  0.63798720    -0.40400
O3206       O  0.70306919  0.18692788  0.66471981    -0.39600
O3207       O  0.73882281  0.03350560  0.61137496    -0.39600
O3208       O  0.72050402  0.05169620  0.58582577    -0.37300
O3209       O  0.79443810  0.10955725  0.67989194    -0.38200
O3210       O  0.80208967  0.05112197  0.67213345    -0.34400
O3211       O  0.75460855  0.13940467  0.58642048    -0.35800
O3212       O  0.77172685  0.08953926  0.57589308    -0.40100
C3213       C  0.48001546  0.25712416  0.60284061    -0.13800
C3214       C  0.48871433  0.24640793  0.62093648     0.16600
C3215       C  0.47503065  0.24354195  0.63732873     0.02900
C3216       C  0.45295597  0.25135420  0.63520013    -0.12300
C3217       C  0.44421453  0.26248399  0.61706516    -0.03300
C3218       C  0.45810677  0.26539044  0.60074872     0.02200
C3219       C  0.51220785  0.23897385  0.62208594     0.09000
N3220       N  0.48329939  0.23334562  0.65620986     0.65400
H3221       H  0.44256805  0.24855303  0.64782581     0.18300
N3222       N  0.45040425  0.27749762  0.58201440     0.75800
H3223       H  0.49043876  0.25946422  0.59020365     0.09800
C3224       C  0.52075351  0.20321085  0.62742262     0.03500
C3225       C  0.54320844  0.19787646  0.62750354    -0.05200
C3226       C  0.55709038  0.22693643  0.62151370    -0.23600
C3227       C  0.54854143  0.26262263  0.61657199     0.12700
C3228       C  0.52629493  0.26837196  0.61693870    -0.12800
N3229       N  0.50695981  0.17155653  0.63150639     0.64400
H3230       H  0.54977764  0.17022301  0.63098232     0.12300
N3231       N  0.56236383  0.29341264  0.61137575     0.61000
H3232       H  0.51992051  0.29596602  0.61304097     0.08400
O3233       O  0.44395556  0.31112276  0.57970659    -0.40400
O3234       O  0.45270176  0.25632478  0.56728706    -0.39600
O3235       O  0.49898363  0.25127308  0.66348345    -0.39600
O3236       O  0.47367124  0.20888537  0.66642689    -0.37300
O3237       O  0.57273385  0.31080808  0.62449523    -0.38200
O3238       O  0.56256050  0.30561299  0.59403395    -0.34400
O3239       O  0.49137141  0.16401185  0.62026542    -0.35800
O3240       O  0.51193296  0.14833330  0.64481482    -0.40100
C3241       C  0.60964673  0.83147212  0.98204283    -0.13800
C3242       C  0.62336232  0.85975409  0.98920885     0.16600
C3243       C  0.63699635  0.87873735  0.97589662     0.02900
C3244       C  0.63660531  0.86891190  0.95584342    -0.12300
C3245       C  0.62276426  0.84040311  0.94866436    -0.03300
C3246       C  0.60923381  0.82143310  0.96227050     0.02200
C3247       C  0.62444028  0.86498719  0.01093222     0.09000
N3248       N  0.65092845  0.90850848  0.98242856     0.65400
H3249       H  0.64702570  0.88397086  0.94582152     0.18300
N3250       N  0.59548915  0.79067913  0.95663524     0.75800
H3251       H  0.59968886  0.81560193  0.99213911     0.09800
C3252       C  0.60530931  0.86866974  0.02196867     0.03500
C3253       C  0.60549266  0.86066131  0.04206978    -0.05200
C3254       C  0.62456204  0.85042382  0.05172646    -0.23600
C3255       C  0.64407300  0.84993285  0.04112641     0.12700
C3256       C  0.64384328  0.85739010  0.02087341    -0.12800
N3257       N  0.58541184  0.87905940  0.01272352     0.64400
H3258       H  0.59052378  0.86172450  0.05017489     0.12300
N3259       N  0.66378417  0.83802593  0.05019948     0.61000
H3260       H  0.65855718  0.85370130  0.01260380     0.08400
O3261       O  0.57566063  0.79215119  0.96059546    -0.40400
O3262       O  0.60373657  0.75924837  0.95199141    -0.39600
O3263       O  0.67051571  0.90864859  0.97754044    -0.39600
O3264       O  0.64330281  0.93632765  0.99172577    -0.37300
O3265       O  0.66501963  0.80575158  0.05808309    -0.38200
O3266       O  0.68069291  0.85737937  0.04799562    -0.34400
O3267       O  0.56836296  0.86097460  0.01641483    -0.35800
O3268       O  0.58457469  0.90783712  0.00179026    -0.40100
C3269       C  0.72987519  0.84093289  0.88948885    -0.13800
C3270       C  0.74085029  0.86349804  0.87585054     0.16600
C3271       C  0.72917735  0.88174098  0.86090696     0.02900
C3272       C  0.70714473  0.87515758  0.85894898    -0.12300
C3273       C  0.69611457  0.85148552  0.87203423    -0.03300
C3274       C  0.70755988  0.83490474  0.88775756     0.02200
C3275       C  0.76467157  0.86359321  0.87525603     0.09000
N3276       N  0.73961256  0.90710503  0.84760879     0.65400
H3277       H  0.69850449  0.88935703  0.84726090     0.18300
N3278       N  0.69710710  0.81005992  0.90125328     0.75800
H3279       H  0.73882304  0.82641737  0.90087208     0.09800
C3280       C  0.77735037  0.87854536  0.89048082     0.03500
C3281       C  0.79982079  0.88006070  0.88843076    -0.05200
C3282       C  0.80995273  0.86688256  0.87129719    -0.23600
C3283       C  0.79707307  0.85004315  0.85651799     0.12700
C3284       C  0.77473559  0.84886004  0.85860778    -0.12800
N3285       N  0.76757308  0.89390419  0.90763889     0.64400
H3286       H  0.80926118  0.89281978  0.90003781     0.12300
N3287       N  0.80632006  0.83340355  0.83940411     0.61000
H3288       H  0.76508552  0.83628082  0.84706717     0.08400
O3289       O  0.69694602  0.81791720  0.91925783    -0.40400
O3290       O  0.69038241  0.77816814  0.89554557    -0.39600
O3291       O  0.73759752  0.90253423  0.82938897    -0.39600
O3292       O  0.74962125  0.93563699  0.85406155    -0.37300
O3293       O  0.80262526  0.84771407  0.82281709    -0.38200
O3294       O  0.81557717  0.80163432  0.84056855    -0.34400
O3295       O  0.77075528  0.87844734  0.92403241    -0.35800
O3296       O  0.75744024  0.92485660  0.90670711    -0.40100
C3297       C  0.52238783  0.76158125  0.89068416    -0.13800
C3298       C  0.51460657  0.74197951  0.87427168     0.16600
C3299       C  0.52877452  0.73396842  0.85871033     0.02900
C3300       C  0.55060858  0.74389314  0.86033948    -0.12300
C3301       C  0.55861463  0.76099531  0.87744543    -0.03300
C3302       C  0.54413740  0.77108610  0.89246351     0.02200
C3303       C  0.49150526  0.73114770  0.87386132     0.09000
N3304       N  0.52154821  0.71378451  0.84176233     0.65400
H3305       H  0.56158613  0.73588214  0.84875293     0.18300
N3306       N  0.55124101  0.79116692  0.90954759     0.75800
H3307       H  0.51140716  0.76956990  0.90227096     0.09800
C3308       C  0.48227668  0.71197747  0.88988868     0.03500
C3309       C  0.45993555  0.70840788  0.89113715    -0.05200
C3310       C  0.44636458  0.72285574  0.87648056    -0.23600
C3311       C  0.45561985  0.74018175  0.85988304     0.12700
C3312       C  0.47807366  0.74422910  0.85872812    -0.12800
N3313       N  0.49542974  0.69658024  0.90520257     0.64400
H3314       H  0.45312977  0.69430094  0.90376976     0.12300
N3315       N  0.44244421  0.75660944  0.84493650     0.61000
H3316       H  0.48492706  0.75962016  0.84653174     0.08400
O3317       O  0.54512034  0.78073720  0.92628914    -0.40400
O3318       O  0.56193617  0.82139306  0.90782298    -0.39600
O3319       O  0.52466354  0.72736559  0.82493542    -0.39600
O3320       O  0.51387243  0.68084613  0.84347785    -0.37300
O3321       O  0.43316552  0.78789071  0.84794271    -0.38200
O3322       O  0.44200164  0.74208208  0.82807693    -0.34400
O3323       O  0.49176940  0.70514403  0.92280795    -0.35800
O3324       O  0.50996784  0.67279718  0.90124954    -0.40100
C3325       C  0.63839506  0.76732158  0.76646653    -0.13800
C3326       C  0.62095969  0.74417285  0.76135503     0.16600
C3327       C  0.60699113  0.73138431  0.77618861     0.02900
C3328       C  0.61058761  0.74221860  0.79574840    -0.12300
C3329       C  0.62799233  0.76579204  0.80097406    -0.03300
C3330       C  0.64223503  0.77777642  0.78597815     0.02200
C3331       C  0.61954513  0.72957182  0.74095311     0.09000
N3332       N  0.58886591  0.70796400  0.77153243     0.65400
H3333       H  0.59934814  0.73282494  0.80682641     0.18300
N3334       N  0.66124366  0.79915750  0.79031263     0.75800
H3335       H  0.64967875  0.77607283  0.75527493     0.09800
C3336       C  0.61333665  0.75279379  0.72513770     0.03500
C3337       C  0.61428054  0.73885220  0.70584626    -0.05200
C3338       C  0.62180114  0.70197479  0.70191135    -0.23600
C3339       C  0.62763517  0.67862979  0.71800028     0.12700
C3340       C  0.62636183  0.69251747  0.73716915    -0.12800
N3341       N  0.60622604  0.79071666  0.72849098     0.64400
H3342       H  0.60970718  0.75735532  0.69389263     0.12300
N3343       N  0.63502901  0.64065493  0.71520733     0.61000
H3344       H  0.63127990  0.67446378  0.74920699     0.08400
O3345       O  0.66413972  0.83099558  0.78234741    -0.40400
O3346       O  0.67653028  0.78375918  0.79957800    -0.39600
O3347       O  0.58586991  0.67735419  0.78066426    -0.39600
O3348       O  0.57470855  0.71963291  0.75969299    -0.37300
O3349       O  0.65489073  0.63336039  0.71642555    -0.38200
O3350       O  0.62161605  0.61383763  0.71450245    -0.34400
O3351       O  0.61936677  0.81784898  0.72717093    -0.35800
O3352       O  0.58648126  0.79740488  0.73112069    -0.40100
C3353       C  0.62129531  0.31338308  0.98120759    -0.13800
C3354       C  0.62720527  0.34889585  0.98863605     0.16600
C3355       C  0.63469338  0.37687647  0.97553826     0.02900
C3356       C  0.63521890  0.36927267  0.95523978    -0.12300
C3357       C  0.62816202  0.33419178  0.94778086    -0.03300
C3358       C  0.62190269  0.30565928  0.96116094     0.02200
C3359       C  0.62542388  0.35488207  0.01019334     0.09000
N3360       N  0.64075039  0.41358983  0.98250406     0.65400
H3361       H  0.64014504  0.39143644  0.94524889     0.18300
N3362       N  0.61665109  0.26818359  0.95466584     0.75800
H3363       H  0.61631676  0.29117852  0.99117152     0.09800
C3364       C  0.60532489  0.35034854  0.01943754     0.03500
C3365       C  0.60422407  0.34595150  0.03975745    -0.05200
C3366       C  0.62286153  0.34665866  0.05143543    -0.23600
C3367       C  0.64293073  0.35375152  0.04237425     0.12700
C3368       C  0.64404041  0.35787420  0.02186763    -0.12800
N3369       N  0.58590552  0.34873693  0.00816898     0.64400
H3370       H  0.58864726  0.34109991  0.04642262     0.12300
N3371       N  0.66249355  0.35284028  0.05346441     0.61000
H3372       H  0.65964231  0.36059535  0.01494637     0.08400
O3373       O  0.59861956  0.25385396  0.95884100    -0.40400
O3374       O  0.63083311  0.24799788  0.94654117    -0.39600
O3375       O  0.65898602  0.42705558  0.97830441    -0.39600
O3376       O  0.62718457  0.43399366  0.99131401    -0.37300
O3377       O  0.66993230  0.32155358  0.05934941    -0.38200
O3378       O  0.67364712  0.38251095  0.05530974    -0.34400
O3379       O  0.57468312  0.31893352  0.00802519    -0.35800
O3380       O  0.57917481  0.37798260  0.99947049    -0.40100
C3381       C  0.62561360  0.59757663  0.86110151    -0.13800
C3382       C  0.63376724  0.57722467  0.87711643     0.16600
C3383       C  0.64057226  0.59693632  0.89396555     0.02900
C3384       C  0.63832620  0.63639523  0.89475045    -0.12300
C3385       C  0.62994043  0.65698157  0.87882936    -0.03300
C3386       C  0.62367089  0.63712811  0.86178790     0.02200
C3387       C  0.63458945  0.53532461  0.87610903     0.09000
N3388       N  0.65020126  0.57739408  0.91017398     0.65400
H3389       H  0.64356164  0.65114154  0.90782855     0.18300
N3390       N  0.61420189  0.65636433  0.84550189     0.75800
H3391       H  0.62028628  0.58253399  0.84813961     0.09800
C3392       C  0.62210541  0.51224259  0.88858716     0.03500
C3393       C  0.62389564  0.47263073  0.88733327    -0.05200
C3394       C  0.63757023  0.45548827  0.87356579    -0.23600
C3395       C  0.65051200  0.47896563  0.86156312     0.12700
C3396       C  0.64866714  0.51839441  0.86278642    -0.12800
N3397       N  0.60688236  0.52850651  0.90192809     0.64400
H3398       H  0.61371428  0.45520791  0.89650663     0.12300
N3399       N  0.66604954  0.46332841  0.84840599     0.61000
H3400       H  0.65865699  0.53602727  0.85352996     0.08400
O3401       O  0.59396904  0.65829923  0.84398541    -0.40400
O3402       O  0.62585879  0.66661535  0.83137553    -0.39600
O3403       O  0.66596361  0.55544860  0.90740904    -0.39600
O3404       O  0.64462506  0.58529159  0.92743967    -0.37300
O3405       O  0.66489550  0.47055860  0.83035800    -0.38200
O3406       O  0.68228275  0.44602390  0.85507331    -0.34400
O3407       O  0.59352984  0.55296138  0.89600357    -0.35800
O3408       O  0.60518146  0.51552083  0.91905363    -0.40100
C3409       C  0.63110596  0.01478941  0.88849907    -0.13800
C3410       C  0.62505896  0.03542647  0.87173381     0.16600
C3411       C  0.62048285  0.01562169  0.85430822     0.02900
C3412       C  0.62216215  0.97611412  0.85391666    -0.12300
C3413       C  0.62796865  0.95532823  0.87068675    -0.03300
C3414       C  0.63254146  0.97510814  0.88816772     0.02200
C3415       C  0.62423556  0.07757723  0.87257704     0.09000
N3416       N  0.61355528  0.03507496  0.83701165     0.65400
H3417       H  0.61838113  0.96150575  0.84039382     0.18300
N3418       N  0.63975069  0.95566881  0.90535857     0.75800
H3419       H  0.63529468  0.02968385  0.90183707     0.09800
C3420       C  0.61300350  0.09627560  0.88765250     0.03500
C3421       C  0.61381731  0.13574194  0.88895649    -0.05200
C3422       C  0.62506295  0.15764550  0.87517329    -0.23600
C3423       C  0.63582024  0.13912633  0.85975654     0.12700
C3424       C  0.63554220  0.09937047  0.85872034    -0.12800
N3425       N  0.60017779  0.07569158  0.90143845     0.64400
H3426       H  0.60494313  0.14947903  0.90060297     0.12300
N3427       N  0.64784885  0.16005093  0.84560998     0.61000
H3428       H  0.64461315  0.08542694  0.84727758     0.08400
O3429       O  0.65785427  0.93937206  0.90545136    -0.40400
O3430       O  0.62933579  0.95873648  0.92110307    -0.39600
O3431       O  0.62298676  0.02923745  0.82096160    -0.39600
O3432       O  0.59690335  0.05558867  0.83738956    -0.37300
O3433       O  0.66607805  0.17335598  0.85006805    -0.38200
O3434       O  0.64129333  0.16191772  0.82815000    -0.34400
O3435       O  0.60199778  0.08231342  0.91951054    -0.35800
O3436       O  0.58568901  0.05335828  0.89549894    -0.40100
C3437       C  0.73462493  0.32682633  0.85890566    -0.13800
C3438       C  0.74318475  0.34730418  0.87468986     0.16600
C3439       C  0.72923549  0.36003628  0.88960221     0.02900
C3440       C  0.70700998  0.35320691  0.88796645    -0.12300
C3441       C  0.69830430  0.33523316  0.87135318    -0.03300
C3442       C  0.71249439  0.32072468  0.85707841     0.02200
C3443       C  0.76643932  0.35708284  0.87415417     0.09000
N3444       N  0.73706247  0.38225078  0.90567225     0.65400
H3445       H  0.69637286  0.36481785  0.89898615     0.18300
N3446       N  0.70469541  0.30049973  0.84036666     0.75800
H3447       H  0.74524603  0.31623187  0.84759242     0.09800
C3448       C  0.78111964  0.34769562  0.88928227     0.03500
C3449       C  0.80299702  0.35737916  0.88721287    -0.05200
C3450       C  0.81066988  0.37449435  0.87000957    -0.23600
C3451       C  0.79580626  0.38405655  0.85516123     0.12700
C3452       C  0.77402063  0.37577990  0.85746441    -0.12800
N3453       N  0.77446034  0.32651020  0.90615354     0.64400
H3454       H  0.81430468  0.34909505  0.89853055     0.12300
N3455       N  0.80251283  0.40246223  0.83761829     0.61000
H3456       H  0.76288885  0.38360375  0.84589809     0.08400
O3457       O  0.69617398  0.26830395  0.84247149    -0.40400
O3458       O  0.70848940  0.31283070  0.82340031    -0.39600
O3459       O  0.74771164  0.41207883  0.90251708    -0.39600
O3460       O  0.73118644  0.37462440  0.92288423    -0.37300
O3461       O  0.80371461  0.38372385  0.82193453    -0.38200
O3462       O  0.80287903  0.43816669  0.83699718    -0.34400
O3463       O  0.76201802  0.29844935  0.90427767    -0.35800
O3464       O  0.78291501  0.33304652  0.92262824    -0.40100
C3465       C  0.52421127  0.27122221  0.85847555    -0.13800
C3466       C  0.51272087  0.25377403  0.87363135     0.16600
C3467       C  0.52384415  0.24128595  0.89036619     0.02900
C3468       C  0.54605445  0.24672046  0.89188934    -0.12300
C3469       C  0.55789460  0.26406987  0.87679985    -0.03300
C3470       C  0.54664605  0.27644293  0.85989293     0.02200
C3471       C  0.48896079  0.25017365  0.87266048     0.09000
N3472       N  0.51278228  0.22212298  0.90578832     0.65400
H3473       H  0.55409590  0.23633067  0.90491034     0.18300
N3474       N  0.55758147  0.29501793  0.84424686     0.75800
H3475       H  0.51568933  0.28128594  0.84563574     0.09800
C3476       C  0.47585435  0.27290229  0.88467841     0.03500
C3477       C  0.45400813  0.26415609  0.88676769    -0.05200
C3478       C  0.44462357  0.23370729  0.87659959    -0.23600
C3479       C  0.45755022  0.21212326  0.86379211     0.12700
C3480       C  0.47961904  0.22035418  0.86202526    -0.12800
N3481       N  0.48457330  0.30498992  0.89481204     0.64400
H3482       H  0.44418635  0.28182608  0.89616237     0.12300
N3483       N  0.44887574  0.18026556  0.85356459     0.61000
H3484       H  0.48968330  0.20238378  0.85301073     0.08400
O3485       O  0.55899403  0.33068220  0.84413812    -0.40400
O3486       O  0.56288965  0.27645319  0.82924183    -0.39600
O3487       O  0.50713327  0.18805071  0.90354543    -0.39600
O3488       O  0.51149656  0.23721740  0.92247494    -0.37300
O3489       O  0.44611766  0.18192584  0.83530092    -0.38200
O3490       O  0.44691119  0.14892839  0.86225497    -0.34400
O3491       O  0.49363466  0.33113531  0.88530653    -0.35800
O3492       O  0.48086277  0.30956333  0.91279774    -0.40100
C3493       C  0.63704640  0.26993287  0.76415771    -0.13800
C3494       C  0.61898079  0.24862392  0.75876183     0.16600
C3495       C  0.60447652  0.23702366  0.77346649     0.02900
C3496       C  0.60804382  0.24759073  0.79309764    -0.12300
C3497       C  0.62602277  0.26959419  0.79851506    -0.03300
C3498       C  0.64087765  0.27996229  0.78368551     0.02200
C3499       C  0.61720329  0.23536704  0.73808565     0.09000
N3500       N  0.58573867  0.21542843  0.76858358     0.65400
H3501       H  0.59636408  0.23935618  0.80403943     0.18300
N3502       N  0.66060250  0.29895705  0.78825504     0.75800
H3503       H  0.64882090  0.27758407  0.75316918     0.09800
C3504       C  0.61662306  0.26108627  0.72224618     0.03500
C3505       C  0.61831272  0.24774102  0.70291541    -0.05200
C3506       C  0.62087567  0.20898366  0.69895993    -0.23600
C3507       C  0.62092863  0.18324202  0.71484919     0.12700
C3508       C  0.61909003  0.19655162  0.73410417    -0.12800
N3509       N  0.61457096  0.30089933  0.72562088     0.64400
H3510       H  0.61815049  0.26785077  0.69099499     0.12300
N3511       N  0.62278707  0.14333726  0.71167404     0.61000
H3512       H  0.61985231  0.17647247  0.74607716     0.08400
O3513       O  0.66445928  0.33109678  0.78097961    -0.40400
O3514       O  0.67551115  0.28101606  0.79675723    -0.39600
O3515       O  0.58316180  0.18280003  0.77574392    -0.39600
O3516       O  0.57074114  0.23045075  0.75879032    -0.37300
O3517       O  0.64025278  0.12661700  0.71555957    -0.38200
O3518       O  0.60624992  0.12416509  0.70749940    -0.34400
O3519       O  0.62932434  0.32316081  0.72027396    -0.35800
O3520       O  0.59713756  0.31417642  0.73214239    -0.40100
loop_ 
_geom_bond_atom_site_label_1 
_geom_bond_atom_site_label_2 
_geom_bond_distance 
_geom_bond_site_symmetry_2 
_ccdc_geom_bond_type 
O1           Ni7   1.913       .  S
O1           C22   1.266       .  A
O2          Ni25   1.925       .  S
O2           C11   1.273       .  A
O3           Ni7   1.898       .  S
O3          Ni25   1.908       .  S
O3          Ni19   1.913       .  S
O3           H26   0.968       .  S
C4           O21   1.274       .  A
C4           O13   1.274       .  A
C4         C3394   1.488       .  S
O5          Ni24   1.930       .  S
O5           C11   1.271       .  A
O6          Ni24   1.902       .  S
O6            C8   1.269       .  A
Ni7          O10   1.906       .  S
Ni7          O12   1.901       .  S
C8           O18   1.273       .  A
C8         C3441   1.484       .  S
O9          Ni25   1.937       .  S
O9           C15   1.282       .  A
O10          C15   1.276       .  A
C11        C3497   1.501       .  S
O12          C14   1.268       .  A
O13         Ni24   1.926       .  S
C14          O20   1.273       .  A
C14        C3469   1.494       .  S
C15        C3422   1.483       .  S
H16          O17   0.968       .  S
O17         Ni25   1.924       .  S
O17         Ni19   1.928       .  S
O17         Ni24   1.910       .  S
O18         Ni19   1.934       .  S
Ni19         O23   1.938       .  S
Ni19         O21   1.914       .  S
O20         Ni25   1.936       .  S
C22          O23   1.271       .  A
C22        C3357   1.493       .  S
O27         Ni33   1.917       .  S
O27          C48   1.265       .  A
O28         Ni51   1.921       .  S
O28          C37   1.271       .  A
O29         Ni33   1.896       .  S
O29         Ni51   1.906       .  S
O29         Ni45   1.915       .  S
O29          H52   0.970       .  S
C30          O47   1.279       .  A
C30          O39   1.276       .  A
C30        C3413   1.485       .  S
O31         Ni50   1.931       .  S
O31          C37   1.271       .  A
O32         Ni50   1.899       .  S
O32          C34   1.270       .  A
Ni33         O36   1.917       .  S
Ni33         O38   1.900       .  S
C34          O44   1.273       .  A
C34        C3273   1.480       .  S
O35         Ni51   1.928       .  S
O35          C41   1.280       .  A
O36          C41   1.278       .  A
C37        C3329   1.500       .  S
O38          C40   1.266       .  A
O39         Ni50   1.916       .  S
C40          O46   1.269       .  A
C40        C3301   1.477       .  S
C41        C3385   1.485       .  S
H42          O43   0.963       .  S
O43         Ni51   1.915       .  S
O43         Ni45   1.920       .  S
O43         Ni50   1.900       .  S
O44         Ni45   1.931       .  S
Ni45         O49   1.942       .  S
Ni45         O47   1.925       .  S
O46         Ni51   1.923       .  S
C48          O49   1.274       .  A
C48        C3245   1.502       .  S
O53         Ni59   1.911       .  S
O53          C74   1.265       .  A
O54         Ni77   1.922       .  S
O54          C63   1.273       .  A
O55         Ni59   1.896       .  S
O55         Ni77   1.901       .  S
O55         Ni71   1.920       .  S
O55          H78   0.968       .  S
C56          O73   1.277       .  A
C56          O65   1.276       .  A
C56        C3142   1.490       .  S
O57         Ni76   1.929       .  S
O57          C63   1.272       .  A
O58         Ni76   1.906       .  S
O58          C60   1.270       .  A
Ni59         O62   1.906       .  S
Ni59         O64   1.908       .  S
C60          O70   1.273       .  A
C60        C3189   1.477       .  S
O61         Ni77   1.946       .  S
O61          C67   1.285       .  A
O62          C67   1.277       .  A
C63        C3506   1.491       .  S
O64          C66   1.267       .  A
O65         Ni76   1.928       .  S
C66          O72   1.268       .  A
C66        C3226   1.471       .  S
C67        C3170   1.496       .  S
H68          O69   0.960       .  S
O69         Ni77   1.923       .  S
O69         Ni71   1.923       .  S
O69         Ni76   1.902       .  S
O70         Ni71   1.936       .  S
Ni71         O75   1.940       .  S
Ni71         O73   1.920       .  S
O72         Ni77   1.923       .  S
C74          O75   1.272       .  A
C74        C3105   1.500       .  S
O79         Ni85   1.935       .  S
O79         C100   1.272       .  A
O80        Ni103   1.923       .  S
O80          C89   1.274       .  A
O81         Ni85   1.898       .  S
O81        Ni103   1.908       .  S
O81         Ni97   1.911       .  S
O81         H104   0.966       .  S
C82          O99   1.276       .  A
C82          O91   1.277       .  A
C82        C3161   1.487       .  S
O83        Ni102   1.934       .  S
O83          C89   1.274       .  A
O84        Ni102   1.909       .  S
O84          C86   1.269       .  A
Ni85         O88   1.920       .  S
Ni85         O90   1.910       .  S
C86          O96   1.273       .  A
C86        C3049   1.481       .  S
O87        Ni103   1.931       .  S
O87          C93   1.279       .  A
O88          C93   1.277       .  A
C89        C3338   1.499       .  S
O90          C92   1.271       .  A
O91        Ni102   1.935       .  S
C92          O98   1.276       .  A
C92        C3077   1.495       .  S
C93        C3133   1.477       .  S
H94          O95   0.965       .  S
O95        Ni103   1.918       .  S
O95         Ni97   1.918       .  S
O95        Ni102   1.906       .  S
O96         Ni97   1.941       .  S
Ni97        O101   1.923       .  S
Ni97         O99   1.915       .  S
O98        Ni103   1.937       .  S
C100        O101   1.271       .  A
C100       C3021   1.489       .  S
O105       Ni111   1.923       .  S
O105        C126   1.269       .  A
O106       Ni129   1.932       .  S
O106        C115   1.275       .  A
O107       Ni111   1.894       .  S
O107       Ni129   1.910       .  S
O107       Ni123   1.912       .  S
O107        H130   0.966       .  S
C108        O125   1.277       .  A
C108        O117   1.276       .  A
C108       C2909   1.483       .  S
O109       Ni128   1.931       .  S
O109        C115   1.272       .  A
O110       Ni128   1.905       .  S
O110        C112   1.269       .  A
Ni111       O114   1.909       .  S
Ni111       O116   1.906       .  S
C112        O122   1.272       .  A
C112       C2965   1.487       .  S
O113       Ni129   1.938       .  S
O113        C119   1.283       .  A
O114        C119   1.277       .  A
C115       C2993   1.505       .  S
O116        C118   1.269       .  A
O117       Ni128   1.923       .  S
C118        O124   1.273       .  A
C118       C3478   1.484       .  S
C119       C2946   1.488       .  S
H120        O121   0.965       .  S
O121       Ni129   1.917       .  S
O121       Ni123   1.921       .  S
O121       Ni128   1.905       .  S
O122       Ni123   1.932       .  S
Ni123       O127   1.936       .  S
Ni123       O125   1.917       .  S
O124       Ni129   1.932       .  S
C126        O127   1.273       .  A
C126       C2881   1.504       .  S
O131       Ni137   1.918       .  S
O131        C152   1.269       .  A
O132       Ni155   1.930       .  S
O132        C141   1.273       .  A
O133       Ni137   1.899       .  S
O133       Ni155   1.912       .  S
O133       Ni149   1.916       .  S
O133        H156   0.966       .  S
C134        O151   1.279       .  A
C134        O143   1.276       .  A
C134       C2937   1.482       .  S
O135       Ni154   1.929       .  S
O135        C141   1.270       .  A
O136       Ni154   1.906       .  S
O136        C138   1.270       .  A
Ni137       O140   1.917       .  S
Ni137       O142   1.896       .  S
C138        O148   1.271       .  A
C138       C2834   1.480       .  S
O139       Ni155   1.926       .  S
O139        C145   1.280       .  A
O140        C145   1.277       .  A
C141       C2853   1.504       .  S
O142        C144   1.267       .  A
O143       Ni154   1.918       .  S
C144        O150   1.271       .  A
C144       C3310   1.479       .  S
C145       C2918   1.482       .  S
H146        O147   0.965       .  S
O147       Ni155   1.919       .  S
O147       Ni149   1.915       .  S
O147       Ni154   1.903       .  S
O148       Ni149   1.924       .  S
Ni149       O153   1.937       .  S
Ni149       O151   1.925       .  S
O150       Ni155   1.930       .  S
C152        O153   1.272       .  A
C152       C2797   1.504       .  S
O157       Ni163   1.920       .  S
O157        C178   1.269       .  A
O158       Ni181   1.935       .  S
O158        C167   1.275       .  A
O159       Ni163   1.895       .  S
O159       Ni181   1.907       .  S
O159       Ni175   1.914       .  S
O159        H182   0.967       .  S
C160        O177   1.280       .  A
C160        O169   1.276       .  A
C160       C2713   1.482       .  S
O161       Ni180   1.926       .  S
O161        C167   1.272       .  A
O162       Ni180   1.903       .  S
O162        C164   1.270       .  A
Ni163       O166   1.914       .  S
Ni163       O168   1.905       .  S
C164        O174   1.276       .  A
C164       C2769   1.497       .  S
O165       Ni181   1.932       .  S
O165        C171   1.282       .  A
O166        C171   1.276       .  A
C167       C3002   1.499       .  S
O168        C170   1.268       .  A
O169       Ni180   1.920       .  S
C170        O176   1.273       .  A
C170       C3217   1.488       .  S
C171       C2741   1.470       .  S
H172        O173   0.965       .  S
O173       Ni181   1.923       .  S
O173       Ni175   1.915       .  S
O173       Ni180   1.895       .  S
O174       Ni175   1.938       .  S
Ni175       O179   1.939       .  S
Ni175       O177   1.931       .  S
O176       Ni181   1.929       .  S
C178        O179   1.276       .  A
C178       C2685   1.489       .  S
O183       Ni189   1.918       .  S
O183        C204   1.267       .  A
O184       Ni207   1.936       .  S
O184        C193   1.276       .  A
O185       Ni189   1.903       .  S
O185       Ni207   1.915       .  S
O185       Ni201   1.915       .  S
O185        H208   0.966       .  S
C186        O203   1.273       .  A
C186        O195   1.273       .  A
C186       C2750   1.483       .  S
O187       Ni206   1.926       .  S
O187        C193   1.271       .  A
O188       Ni206   1.900       .  S
O188        C190   1.269       .  A
Ni189       O192   1.909       .  S
Ni189       O194   1.903       .  S
C190        O200   1.275       .  A
C190       C2657   1.484       .  S
O191       Ni207   1.944       .  S
O191        C197   1.284       .  A
O192        C197   1.276       .  A
C193       C2862   1.498       .  S
O194        C196   1.269       .  A
O195       Ni206   1.922       .  S
C196        O202   1.274       .  A
C196       C3086   1.493       .  S
C197       C2722   1.491       .  S
H198        O199   0.964       .  S
O199       Ni207   1.928       .  S
O199       Ni201   1.928       .  S
O199       Ni206   1.911       .  S
O200       Ni201   1.940       .  S
Ni201       O205   1.940       .  S
Ni201       O203   1.912       .  S
O202       Ni207   1.937       .  S
C204        O205   1.272       .  A
C204       C2629   1.497       .  S
O209       Ni215   1.929       .  S
O209        C230   1.270       .  A
O210       Ni233   1.927       .  S
O210        C219   1.272       .  A
O211       Ni215   1.903       .  S
O211       Ni233   1.913       .  S
O211       Ni227   1.909       .  S
O211        H234   0.968       .  S
C212        O229   1.279       .  A
C212        O221   1.276       .  A
C212       C2554   1.488       .  S
O213       Ni232   1.927       .  S
O213        C219   1.269       .  A
O214       Ni232   1.905       .  S
O214        C216   1.269       .  A
Ni215       O218   1.925   1_545  S
Ni215       O220   1.902       .  S
C216        O226   1.271       .  A
C216       C3198   1.488       .  S
O217       Ni233   1.920   1_565  S
O217        C223   1.279       .  A
O218        C223   1.278       .  A
C219       C2601   1.499       .  S
O220        C222   1.267       .  A
O221       Ni232   1.917       .  S
C222        O228   1.270       .  A
C222       C2573   1.478       .  S
C223       C2517   1.488       .  S
H224        O225   0.964       .  S
O225       Ni233   1.918       .  S
O225       Ni227   1.916       .  S
O225       Ni232   1.906       .  S
O226       Ni227   1.923       .  S
Ni227       O231   1.929       .  S
Ni227       O229   1.930       .  S
O228       Ni233   1.928       .  S
C230        O231   1.271       .  A
C230       C2489   1.487       .  S
O235       Ni241   1.917       .  S
O235        C256   1.267       .  A
O236       Ni259   1.922       .  S
O236        C245   1.271       .  A
O237       Ni241   1.902       .  S
O237       Ni259   1.909       .  S
O237       Ni253   1.918       .  S
O237        H260   0.967       .  S
C238        O255   1.278       .  A
C238        O247   1.274       .  A
C238       C2526   1.487       .  S
O239       Ni258   1.926       .  S
O239        C245   1.270       .  A
O240       Ni258   1.909       .  S
O240        C242   1.270       .  A
Ni241       O244   1.919       .  S
Ni241       O246   1.902       .  S
C242        O252   1.274       .  A
C242       C3058   1.493       .  S
O243       Ni259   1.928       .  S
O243        C249   1.280       .  A
O244        C249   1.278       .  A
C245       C2461   1.486       .  S
O246        C248   1.267       .  A
O247       Ni258   1.914       .  S
C248        O254   1.271       .  A
C248       C2433   1.482       .  S
C249       C2545   1.488       .  S
H250        O251   0.964       .  S
O251       Ni259   1.924       .  S
O251       Ni253   1.925       .  S
O251       Ni258   1.910       .  S
O252       Ni253   1.929       .  S
Ni253       O257   1.941       .  S
Ni253       O255   1.931       .  S
O254       Ni259   1.930       .  S
C256        O257   1.273       .  A
C256       C2405   1.498       .  S
O261       Ni267   1.916       .  S
O261        C282   1.268       .  A
O262       Ni285   1.926       .  S
O262        C271   1.273       .  A
O263       Ni267   1.895       .  S
O263       Ni285   1.907       .  S
O263       Ni279   1.913       .  S
O263        H286   0.978       .  S
C264        O281   1.278       .  A
C264        O273   1.277       .  A
C264       C2349   1.487       .  S
O265       Ni284   1.930       .  S
O265        C271   1.271       .  A
O266       Ni284   1.903       .  S
O266        C268   1.268       .  A
Ni267       O270   1.911       .  S
Ni267       O272   1.902       .  S
C268        O278   1.272       .  A
C268       C3450   1.484       .  S
O269       Ni285   1.932       .  S
O269        C275   1.282       .  A
O270        C275   1.277       .  A
C271       C2470   1.496       .  S
O272        C274   1.267       .  A
O273       Ni284   1.923       .  S
C274        O280   1.273       .  A
C274       C2377   1.491       .  S
C275       C2321   1.483       .  S
H276        O277   0.955       .  S
O277       Ni285   1.920       .  S
O277       Ni279   1.917       .  S
O277       Ni284   1.904       .  S
O278       Ni279   1.929       .  S
Ni279       O283   1.934       .  S
Ni279       O281   1.919       .  S
O280       Ni285   1.936       .  S
C282        O283   1.271       .  A
C282       C2293   1.498       .  S
O287       Ni293   1.921       .  S
O287        C308   1.269       .  A
O288       Ni311   1.929       .  S
O288        C297   1.273       .  A
O289       Ni293   1.900       .  S
O289       Ni311   1.915       .  S
O289       Ni305   1.917       .  S
O289        H312   0.977       .  S
C290        O307   1.279       .  A
C290        O299   1.275       .  A
C290       C2330   1.484       .  S
O291       Ni310   1.924       .  S
O291        C297   1.269       .  A
O292       Ni310   1.903       .  S
O292        C294   1.268       .  A
Ni293       O296   1.915   1_565  S
Ni293       O298   1.898       .  S
C294        O304   1.272       .  A
C294       C3282   1.489       .  S
O295       Ni311   1.926   1_545  S
O295        C301   1.279       .  A
O296        C301   1.276       .  A
C297       C2610   1.498       .  S
O298        C300   1.267       .  A
O299       Ni310   1.912       .  S
C300        O306   1.273       .  A
C300       C2274   1.482       .  S
C301       C2358   1.485       .  S
H302        O303   0.960       .  S
O303       Ni311   1.918       .  S
O303       Ni305   1.916       .  S
O303       Ni310   1.904       .  S
O304       Ni305   1.924       .  S
Ni305       O309   1.932       .  S
Ni305       O307   1.927       .  S
O306       Ni311   1.933       .  S
C308        O309   1.271       .  A
C308       C2237   1.500       .  S
O313       Ni319   1.933       .  S
O313        C334   1.271       .  A
O314       Ni337   1.926       .  S
O314        C323   1.269       .  A
O315       Ni319   1.912       .  S
O315       Ni337   1.921       .  S
O315       Ni331   1.916       .  S
O315        H338   0.968       .  S
C316        O333   1.278       .  A
C316        O325   1.275       .  A
C316       C2181   1.488       .  S
O317       Ni336   1.930       .  S
O317        C323   1.270       .  A
O318       Ni336   1.905       .  S
O318        C320   1.269       .  A
Ni319       O322   1.929   1_545  S
Ni319       O324   1.902       .  S
C320        O330   1.271       .  A
C320       C2974   1.481       .  S
O321       Ni337   1.917   1_565  S
O321        C327   1.275       .  A
O322        C327   1.277       .  A
C323       C2209   1.493       .  S
O324        C326   1.267       .  A
O325       Ni336   1.915       .  S
C326        O332   1.272       .  A
C326       C2265   1.482       .  S
C327       C2153   1.484       .  S
H328        O329   0.964       .  S
O329       Ni337   1.911       .  S
O329       Ni331   1.923       .  S
O329       Ni336   1.913       .  S
O330       Ni331   1.929       .  S
Ni331       O335   1.929       .  S
Ni331       O333   1.927       .  S
O332       Ni337   1.932       .  S
C334        O335   1.271       .  A
C334       C2125   1.489       .  S
O339       Ni345   1.922       .  S
O339        C360   1.269       .  A
O340       Ni363   1.925       .  S
O340        C349   1.272       .  A
O341       Ni345   1.901       .  S
O341       Ni363   1.909       .  S
O341       Ni357   1.912       .  S
O341        H364   0.968       .  S
C342        O359   1.280       .  A
C342        O351   1.275       .  A
C342       C2162   1.492       .  S
O343       Ni362   1.930       .  S
O343        C349   1.270       .  A
O344       Ni362   1.905       .  S
O344        C346   1.269       .  A
Ni345       O348   1.919       .  S
Ni345       O350   1.905       .  S
C346        O356   1.272       .  A
C346       C2825   1.481       .  S
O347       Ni363   1.927       .  S
O347        C353   1.282       .  A
O348        C353   1.278       .  A
C349       C2097   1.499       .  S
O350        C352   1.267       .  A
O351       Ni362   1.918       .  S
C352        O358   1.270       .  A
C352       C2386   1.481       .  S
C353       C2190   1.486       .  S
H354        O355   0.964       .  S
O355       Ni363   1.924       .  S
O355       Ni357   1.921       .  S
O355       Ni362   1.909       .  S
O356       Ni357   1.925       .  S
Ni357       O361   1.940       .  S
Ni357       O359   1.932       .  S
O358       Ni363   1.930       .  S
C360        O361   1.274       .  A
C360       C2078   1.497       .  S
O365       Ni371   1.924       .  S
O365        C386   1.271       .  A
O366       Ni389   1.922       .  S
O366        C375   1.269       .  A
O367       Ni371   1.916       .  S
O367       Ni389   1.923       .  S
O367       Ni383   1.931       .  S
O367        H390   0.966       .  S
C368        O385   1.278       .  A
C368        O377   1.272       .  A
C368       C2050   1.488       .  S
O369       Ni388   1.927       .  S
O369        C375   1.269       .  A
O370       Ni388   1.904       .  S
O370        C372   1.270       .  A
Ni371       O374   1.929       .  S
Ni371       O376   1.905       .  S
C372        O382   1.275       .  A
C372       C2778   1.486       .  S
O373       Ni389   1.914       .  S
O373        C379   1.270       .  A
O374        C379   1.272       .  A
C375       C2106   1.491       .  S
O376        C378   1.270       .  A
O377       Ni388   1.910       .  S
C378        O384   1.277       .  A
C378       C2442   1.490       .  S
C379       C2022   1.491       .  S
H380        O381   0.965       .  S
O381       Ni389   1.911       .  S
O381       Ni383   1.920       .  S
O381       Ni388   1.913       .  S
O382       Ni383   1.935       .  S
Ni383       O387   1.932       .  S
Ni383       O385   1.931       .  S
O384       Ni389   1.942       .  S
C386        O387   1.274       .  A
C386       C1985   1.494       .  S
O391       Ni397   1.915       .  S
O391        C412   1.265       .  A
O392       Ni415   1.930       .  S
O392        C401   1.272       .  A
O393       Ni397   1.899       .  S
O393       Ni415   1.911       .  S
O393       Ni409   1.921       .  S
O393        H416   0.970       .  S
C394        O411   1.281       .  A
C394        O403   1.278       .  A
C394       C2013   1.487       .  S
O395       Ni414   1.927       .  S
O395        C401   1.271       .  A
O396       Ni414   1.906       .  S
O396        C398   1.269       .  A
Ni397       O400   1.911   1_565  S
Ni397       O402   1.897       .  S
C398        O408   1.273       .  A
C398       C2666   1.481       .  S
O399       Ni415   1.939   1_545  S
O399        C405   1.283       .  A
O400        C405   1.277       .  A
C401       C2218   1.501       .  S
O402        C404   1.267       .  A
O403       Ni414   1.924       .  S
C404        O410   1.269       .  A
C404       C2582   1.482       .  S
C405       C2041   1.483       .  S
H406        O407   0.963       .  S
O407       Ni415   1.920       .  S
O407       Ni409   1.916       .  S
O407       Ni414   1.901       .  S
O408       Ni409   1.929       .  S
Ni409       O413   1.943       .  S
Ni409       O411   1.925       .  S
O410       Ni415   1.924       .  S
C412        O413   1.274       .  A
C412       C1957   1.503       .  S
O417       Ni423   1.931       .  S
O417        C438   1.271       .  A
O418       Ni441   1.934       .  S
O418        C427   1.273       .  A
O419       Ni423   1.914       .  S
O419       Ni441   1.923       .  S
O419       Ni435   1.914       .  S
O419        H442   0.966       .  S
C420        O437   1.274       .  A
C420        O429   1.276       .  A
C420       C1845   1.475       .  S
O421       Ni440   1.928       .  S
O421        C427   1.270       .  A
O422       Ni440   1.900       .  S
O422        C424   1.266       .  A
Ni423       O426   1.911       .  S
Ni423       O428   1.907       .  S
C424        O434   1.271       .  A
C424       C1910   1.480       .  S
O425       Ni441   1.931       .  S
O425        C431   1.279       .  A
O426        C431   1.274       .  A
C427       C2890   1.488       .  S
O428        C430   1.269       .  A
O429       Ni440   1.928       .  S
C430        O436   1.273       .  A
C430       C1873   1.471       .  S
C431       C1817   1.486       .  S
H432        O433   0.966       .  S
O433       Ni441   1.912       .  S
O433       Ni435   1.915       .  S
O433       Ni440   1.910       .  S
O434       Ni435   1.934       .  S
Ni435       O439   1.916       .  S
Ni435       O437   1.912       .  S
O436       Ni441   1.932       .  S
C438        O439   1.267       .  A
C438       C1938   1.495       .  S
O443       Ni449   1.926       .  S
O443        C464   1.271       .  A
O444       Ni467   1.926       .  S
O444        C453   1.270       .  A
O445       Ni449   1.907       .  S
O445       Ni467   1.919       .  S
O445       Ni461   1.919       .  S
O445        H468   0.965       .  S
C446        O463   1.280       .  A
C446        O455   1.279       .  A
C446       C1826   1.490       .  S
O447       Ni466   1.931       .  S
O447        C453   1.270       .  A
O448       Ni466   1.905       .  S
O448        C450   1.268       .  A
Ni449       O452   1.917       .  S
Ni449       O454   1.901       .  S
C450        O460   1.269       .  A
C450       C1770   1.478       .  S
O451       Ni467   1.918       .  S
O451        C457   1.275       .  A
O452        C457   1.275       .  A
C453       C2806   1.484       .  S
O454        C456   1.269       .  A
O455       Ni466   1.925       .  S
C456        O462   1.273       .  A
C456       C1733   1.485       .  S
C457       C1854   1.490       .  S
H458        O459   0.967       .  S
O459       Ni467   1.910       .  S
O459       Ni461   1.910       .  S
O459       Ni466   1.905       .  S
O460       Ni461   1.922       .  S
Ni461       O465   1.922       .  S
Ni461       O463   1.927       .  S
O462       Ni467   1.932       .  S
C464        O465   1.269       .  A
C464       C1789   1.494       .  S
O469       Ni475   1.930       .  S
O469        C490   1.272       .  A
O470       Ni493   1.936       .  S
O470        C479   1.272       .  A
O471       Ni475   1.911       .  S
O471       Ni493   1.928       .  S
O471       Ni487   1.928       .  S
O471        H494   0.966       .  S
C472        O489   1.280       .  A
C472        O481   1.277       .  A
C472       C1658   1.483       .  S
O473       Ni492   1.917       .  S
O473        C479   1.268       .  A
O474       Ni492   1.904       .  S
O474        C476   1.268       .  A
Ni475       O478   1.924       .  S
Ni475       O480   1.899       .  S
C476        O486   1.273       .  A
C476       C1714   1.482       .  S
O477       Ni493   1.923       .  S
O477        C483   1.276       .  A
O478        C483   1.274       .  A
C479       C2694   1.499       .  S
O480        C482   1.269       .  A
O481       Ni492   1.919       .  S
C482        O488   1.274       .  A
C482       C1677   1.481       .  S
C483       C1621   1.491       .  S
H484        O485   0.965       .  S
O485       Ni493   1.916       .  S
O485       Ni487   1.900       .  S
O485       Ni492   1.897       .  S
O486       Ni487   1.931       .  S
Ni487       O491   1.916       .  S
Ni487       O489   1.928       .  S
O488       Ni493   1.935       .  S
C490        O491   1.271       .  A
C490       C1929   1.497       .  S
O495       Ni501   1.925       .  S
O495        C516   1.269       .  A
O496       Ni519   1.937       .  S
O496        C505   1.273       .  A
O497       Ni501   1.906       .  S
O497       Ni519   1.922       .  S
O497       Ni513   1.917       .  S
O497        H520   0.965       .  S
C498        O515   1.281       .  A
C498        O507   1.278       .  A
C498       C1630   1.489       .  S
O499       Ni518   1.927       .  S
O499        C505   1.271       .  A
O500       Ni518   1.906       .  S
O500        C502   1.269       .  A
Ni501       O504   1.920       .  S
Ni501       O506   1.901       .  S
C502        O512   1.271       .  A
C502       C1593   1.485       .  S
O503       Ni519   1.925       .  S
O503        C509   1.279       .  A
O504        C509   1.274       .  A
C505       C2638   1.499       .  S
O506        C508   1.267       .  A
O507       Ni518   1.921       .  S
C508        O514   1.273       .  A
C508       C1574   1.484       .  S
C509       C1649   1.496       .  S
H510        O511   0.967       .  S
O511       Ni519   1.915       .  S
O511       Ni513   1.910       .  S
O511       Ni518   1.899       .  S
O512       Ni513   1.929       .  S
Ni513       O517   1.926       .  S
Ni513       O515   1.929       .  S
O514       Ni519   1.933       .  S
C516        O517   1.271       .  A
C516       C1798   1.498       .  S
O521       Ni527   1.926       .  S
O521        C542   1.271       .  A
O522       Ni545   1.930       .  S
O522        C531   1.270       .  A
O523       Ni527   1.908       .  S
O523       Ni545   1.922       .  S
O523       Ni539   1.916       .  S
O523        H546   0.965       .  S
C524        O541   1.280       .  A
C524        O533   1.277       .  A
C524       C1481   1.487       .  S
O525       Ni544   1.924       .  S
O525        C531   1.269       .  A
O526       Ni544   1.904       .  S
O526        C528   1.268       .  A
Ni527       O530   1.924       .  S
Ni527       O532   1.905       .  S
C528        O538   1.273       .  A
C528       C1901   1.488       .  S
O529       Ni545   1.919       .  S
O529        C535   1.277       .  A
O530        C535   1.276       .  A
C531       C3366   1.490       .  S
O532        C534   1.268       .  A
O533       Ni544   1.915       .  S
C534        O540   1.270       .  A
C534       C1518   1.479       .  S
C535       C1453   1.489       .  S
H536        O537   0.966       .  S
O537       Ni545   1.913       .  S
O537       Ni539   1.912       .  S
O537       Ni544   1.904       .  S
O538       Ni539   1.928       .  S
Ni539       O543   1.930       .  S
Ni539       O541   1.927       .  S
O540       Ni545   1.929       .  S
C542        O543   1.272       .  A
C542       C1537   1.498       .  S
O547       Ni553   1.935       .  S
O547        C568   1.272       .  A
O548       Ni571   1.924       .  S
O548        C557   1.270       .  A
O549       Ni553   1.905       .  S
O549       Ni571   1.912       .  S
O549       Ni565   1.909       .  S
O549        H572   0.964       .  S
C550        O567   1.276       .  A
C550        O559   1.277       .  A
C550       C1462   1.485       .  S
O551       Ni570   1.932       .  S
O551        C557   1.270       .  A
O552       Ni570   1.900       .  S
O552        C554   1.268       .  A
Ni553       O556   1.912       .  S
Ni553       O558   1.910       .  S
C554        O564   1.273       .  A
C554       C1761   1.483       .  S
O555       Ni571   1.931       .  S
O555        C561   1.281       .  A
O556        C561   1.276       .  A
C557       C3254   1.482       .  S
O558        C560   1.270       .  A
O559       Ni570   1.924       .  S
C560        O566   1.268       .  A
C560       C1397   1.473       .  S
C561       C1490   1.483       .  S
H562        O563   0.968       .  S
O563       Ni571   1.915       .  S
O563       Ni565   1.917       .  S
O563       Ni570   1.906       .  S
O564       Ni565   1.929       .  S
Ni565       O569   1.926       .  S
Ni565       O567   1.918       .  S
O566       Ni571   1.917       .  S
C568        O569   1.271       .  A
C568       C1434   1.494       .  S
O573       Ni579   1.918       .  S
O573        C594   1.267       .  A
O574       Ni597   1.924       .  S
O574        C583   1.269       .  A
O575       Ni579   1.904       .  S
O575       Ni597   1.910       .  S
O575       Ni591   1.917       .  S
O575        H598   0.964       .  S
C576        O593   1.279       .  A
C576        O585   1.276       .  A
C576       C1341   1.491       .  S
O577       Ni596   1.930       .  S
O577        C583   1.269       .  A
O578       Ni596   1.901       .  S
O578        C580   1.268       .  A
Ni579       O582   1.918       .  S
Ni579       O584   1.908       .  S
C580        O590   1.273       .  A
C580       C1705   1.484       .  S
O581       Ni597   1.932       .  S
O581        C587   1.281       .  A
O582        C587   1.277       .  A
C583       C3114   1.482       .  S
O584        C586   1.267       .  A
O585       Ni596   1.922       .  S
C586        O592   1.271       .  A
C586       C1369   1.477       .  S
C587       C1322   1.489       .  S
H588        O589   0.969       .  S
O589       Ni597   1.920       .  S
O589       Ni591   1.924       .  S
O589       Ni596   1.912       .  S
O590       Ni591   1.936       .  S
Ni591       O595   1.936       .  S
Ni591       O593   1.927       .  S
O592       Ni597   1.930       .  S
C594        O595   1.273       .  A
C594       C1546   1.501       .  S
O599       Ni605   1.935       .  S
O599        C620   1.274       .  A
O600       Ni623   1.922       .  S
O600        C609   1.272       .  A
O601       Ni605   1.904       .  S
O601       Ni623   1.911       .  S
O601       Ni617   1.914       .  S
O601        H624   0.964       .  S
C602        O619   1.276       .  A
C602        O611   1.274       .  A
C602       C1313   1.490       .  S
O603       Ni622   1.927       .  S
O603        C609   1.271       .  A
O604       Ni622   1.911       .  S
O604        C606   1.271       .  A
Ni605       O608   1.921       .  S
Ni605       O610   1.914       .  S
C606        O616   1.275       .  A
C606       C1602   1.488       .  S
O607       Ni623   1.931       .  S
O607        C613   1.278       .  A
O608        C613   1.277       .  A
C609       C3030   1.482       .  S
O610        C612   1.271       .  A
O611       Ni622   1.925       .  S
C612        O618   1.274       .  A
C612       C1285   1.489       .  S
C613       C1350   1.487       .  S
H614        O615   0.969       .  S
O615       Ni623   1.922       .  S
O615       Ni617   1.920       .  S
O615       Ni622   1.911       .  S
O616       Ni617   1.940       .  S
Ni617       O621   1.927       .  S
Ni617       O619   1.922       .  S
O618       Ni623   1.933       .  S
C620        O621   1.272       .  A
C620       C1425   1.505       .  S
O625       Ni631   1.928       .  S
O625        C646   1.272       .  A
O626       Ni649   1.936       .  S
O626        C635   1.273       .  A
O627       Ni631   1.901       .  S
O627       Ni649   1.916       .  S
O627       Ni643   1.919       .  S
O627        H650   0.965       .  S
C628        O645   1.282       .  A
C628        O637   1.278       .  A
C628       C1173   1.487       .  S
O629       Ni648   1.920       .  S
O629        C635   1.269       .  A
O630       Ni648   1.902   1_565  S
O630        C632   1.268   1_565  A
Ni631       O634   1.918       .  S
Ni631       O636   1.910       .  S
C632        O642   1.273       .  A
C632       C1238   1.481   1_545  S
O633       Ni649   1.924       .  S
O633        C639   1.278       .  A
O634        C639   1.276       .  A
C635       C2498   1.499       .  S
O636        C638   1.270       .  A
O637       Ni648   1.914   1_565  S
C638        O644   1.275       .  A
C638       C1378   1.496       .  S
C639       C1210   1.478       .  S
H640        O641   0.967       .  S
O641       Ni649   1.918       .  S
O641       Ni643   1.905       .  S
O641       Ni648   1.895       .  S
O642       Ni643   1.936       .  S
Ni643       O647   1.926       .  S
Ni643       O645   1.935   1_545  S
O644       Ni649   1.935       .  S
C646        O647   1.274       .  A
C646       C1257   1.491       .  S
O651       Ni657   1.929       .  S
O651        C672   1.271       .  A
O652       Ni675   1.934       .  S
O652        C661   1.272       .  A
O653       Ni657   1.907       .  S
O653       Ni675   1.920       .  S
O653       Ni669   1.920       .  S
O653        H676   0.964       .  S
C654        O671   1.280       .  A
C654        O663   1.277       .  A
C654       C1201   1.478       .  S
O655       Ni674   1.928       .  S
O655        C661   1.270       .  A
O656       Ni674   1.901       .  S
O656        C658   1.267       .  A
Ni657       O660   1.915       .  S
Ni657       O662   1.911       .  S
C658        O668   1.275       .  A
C658       C1126   1.486       .  S
O659       Ni675   1.930       .  S
O659        C665   1.279       .  A
O660        C665   1.276       .  A
C661       C2414   1.492       .  S
O662        C664   1.270       .  A
O663       Ni674   1.921       .  S
C664        O670   1.274       .  A
C664       C1294   1.490       .  S
C665       C1182   1.488       .  S
H666        O667   0.968       .  S
O667       Ni675   1.913       .  S
O667       Ni669   1.917       .  S
O667       Ni674   1.905       .  S
O668       Ni669   1.940       .  S
Ni669       O673   1.939       .  S
Ni669       O671   1.924       .  S
O670       Ni675   1.932       .  S
C672        O673   1.274       .  A
C672       C1145   1.506       .  S
O677       Ni683   1.932       .  S
O677        C698   1.271       .  A
O678       Ni701   1.927       .  S
O678        C687   1.270       .  A
O679       Ni683   1.907       .  S
O679       Ni701   1.921       .  S
O679       Ni695   1.915       .  S
O679        H702   0.963       .  S
C680        O697   1.277       .  A
C680        O689   1.277       .  A
C680       C1042   1.489       .  S
O681       Ni700   1.929       .  S
O681        C687   1.269       .  A
O682       Ni700   1.899       .  S
O682        C684   1.268       .  A
Ni683       O686   1.919       .  S
Ni683       O688   1.903       .  S
C684        O694   1.274       .  A
C684       C1098   1.490       .  S
O685       Ni701   1.923       .  S
O685        C691   1.277       .  A
O686        C691   1.276       .  A
C687       C2302   1.481       .  S
O688        C690   1.269       .  A
O689       Ni700   1.919       .  S
C690        O696   1.272       .  A
C690       C1509   1.486       .  S
C691       C1070   1.490       .  S
H692        O693   0.971       .  S
O693       Ni701   1.913       .  S
O693       Ni695   1.913       .  S
O693       Ni700   1.904       .  S
O694       Ni695   1.935       .  S
Ni695       O699   1.930       .  S
Ni695       O697   1.921       .  S
O696       Ni701   1.930       .  S
C698        O699   1.273       .  A
C698       C1154   1.505       .  S
O703       Ni709   1.925       .  S
O703        C724   1.270       .  A
O704       Ni727   1.928       .  S
O704        C713   1.269       .  A
O705       Ni709   1.910       .  S
O705       Ni727   1.921       .  S
O705       Ni721   1.921       .  S
O705        H728   0.961       .  S
C706        O723   1.281       .  A
C706        O715   1.277       .  A
C706       C1061   1.486       .  S
O707       Ni726   1.928       .  S
O707        C713   1.269       .  A
O708       Ni726   1.904       .  S
O708        C710   1.268       .  A
Ni709       O712   1.917       .  S
Ni709       O714   1.897       .  S
C710        O720   1.271       .  A
C710       C1005   1.488       .  S
O711       Ni727   1.918       .  S
O711        C717   1.276       .  A
O712        C717   1.273       .  A
C713       C2246   1.481       .  S
O714        C716   1.267       .  A
O715       Ni726   1.917   1_545  S
C716        O722   1.273       .  A
C716       C1406   1.491       .  S
C717       C1033   1.477       .  S
H718        O719   0.971       .  S
O719       Ni727   1.910       .  S
O719       Ni721   1.911       .  S
O719       Ni726   1.906       .  S
O720       Ni721   1.924       .  S
Ni721       O725   1.929       .  S
Ni721       O723   1.928   1_565  S
O722       Ni727   1.930       .  S
C724        O725   1.272       .  A
C724       C1266   1.499       .  S
O729       Ni735   1.939       .  S
O729        C750   1.273       .  A
O730       Ni753   1.936       .  S
O730        C739   1.272       .  A
O731       Ni735   1.909       .  S
O731       Ni753   1.920       .  S
O731       Ni747   1.917       .  S
O731        H754   0.964       .  S
C732        O749   1.280       .  A
C732        O741   1.277       .  A
C732        C921   1.486       .  S
O733       Ni752   1.924       .  S
O733        C739   1.269       .  A
O734       Ni752   1.904       .  S
O734        C736   1.267       .  A
Ni735       O738   1.924       .  S
Ni735       O740   1.908       .  S
C736        O746   1.269       .  A
C736       C1014   1.475       .  S
O737       Ni753   1.916       .  S
O737        C743   1.277       .  A
O738        C743   1.276       .  A
C739       C2134   1.501       .  S
O740        C742   1.271       .  A
O741       Ni752   1.921   1_565  S
C742        O748   1.273       .  A
C742       C1882   1.488       .  S
C743        C949   1.486       .  S
H744        O745   0.970       .  S
O745       Ni753   1.911       .  S
O745       Ni747   1.914       .  S
O745       Ni752   1.904       .  S
O746       Ni747   1.926       .  S
Ni747       O751   1.922       .  S
Ni747       O749   1.925   1_545  S
O748       Ni753   1.930       .  S
C750        O751   1.270       .  A
C750        C986   1.495       .  S
O755       Ni761   1.925       .  S
O755        C776   1.269       .  A
O756       Ni779   1.940       .  S
O756        C765   1.273       .  A
O757       Ni761   1.910       .  S
O757       Ni779   1.924       .  S
O757       Ni773   1.918       .  S
O757        H780   0.966       .  S
C758        O775   1.279       .  A
C758        O767   1.276       .  A
C758        C958   1.482       .  S
O759       Ni778   1.922       .  S
O759        C765   1.269       .  A
O760       Ni778   1.904       .  S
O760        C762   1.268       .  A
Ni761       O764   1.918       .  S
Ni761       O766   1.904       .  S
C762        O772   1.276       .  A
C762       C1089   1.478       .  S
O763       Ni779   1.928       .  S
O763        C769   1.280       .  A
O764        C769   1.276       .  A
C765       C2069   1.494       .  S
O766        C768   1.268       .  A
O767       Ni778   1.917       .  S
C768        O774   1.271       .  A
C768       C1742   1.482       .  S
C769        C930   1.490       .  S
H770        O771   0.966       .  S
O771       Ni779   1.922       .  S
O771       Ni773   1.922       .  S
O771       Ni778   1.907       .  S
O772       Ni773   1.936       .  S
Ni773       O777   1.949       .  S
Ni773       O775   1.922       .  S
O774       Ni779   1.928       .  S
C776        O777   1.275       .  A
C776        C893   1.513       .  S
O781       Ni787   1.935       .  S
O781        C802   1.272       .  A
O782       Ni805   1.937       .  S
O782        C791   1.273       .  A
O783       Ni787   1.912       .  S
O783       Ni805   1.927       .  S
O783       Ni799   1.921       .  S
O783        H806   0.967       .  S
C784        O801   1.282       .  A
C784        O793   1.277       .  A
C784        C837   1.490       .  S
O785       Ni804   1.929       .  S
O785        C791   1.270       .  A
O786       Ni804   1.900       .  S
O786        C788   1.268       .  A
Ni787       O790   1.925       .  S
Ni787       O792   1.905       .  S
C788        O798   1.273       .  A
C788       C1117   1.487       .  S
O789       Ni805   1.919       .  S
O789        C795   1.276       .  A
O790        C795   1.276       .  A
C791       C1994   1.498       .  S
O792        C794   1.270       .  A
O793       Ni804   1.917       .  S
C794        O800   1.272       .  A
C794       C1686   1.481       .  S
C795        C865   1.482       .  S
H796        O797   0.965       .  S
O797       Ni805   1.909       .  S
O797       Ni799   1.912       .  S
O797       Ni804   1.899       .  S
O798       Ni799   1.932       .  S
Ni799       O803   1.938       .  S
Ni799       O801   1.930       .  S
O800       Ni805   1.927       .  S
C802        O803   1.275       .  A
C802        C902   1.504       .  S
O807       Ni813   1.928       .  S
O807        C828   1.271       .  A
O808       Ni831   1.935       .  S
O808        C817   1.272       .  A
O809       Ni813   1.909       .  S
O809       Ni831   1.923       .  S
O809       Ni825   1.921       .  S
O809        H832   0.981       .  S
C810        O827   1.279       .  A
C810        O819   1.276       .  A
C810        C874   1.485       .  S
O811       Ni830   1.927       .  S
O811        C817   1.268       .  A
O812       Ni830   1.899       .  S
O812        C814   1.268       .  A
Ni813       O816   1.916       .  S
Ni813       O818   1.899       .  S
C814        O824   1.274       .  A
C814       C1229   1.496       .  S
O815       Ni831   1.928       .  S
O815        C821   1.278       .  A
O816        C821   1.275       .  A
C817       C1966   1.487       .  S
O818        C820   1.268       .  A
O819       Ni830   1.918   1_545  S
C820        O826   1.274       .  A
C820       C1565   1.487       .  S
C821        C846   1.481       .  S
H822        O823   0.961       .  S
O823       Ni831   1.916       .  S
O823       Ni825   1.915       .  S
O823       Ni830   1.905       .  S
O824       Ni825   1.936       .  S
Ni825       O829   1.933       .  S
Ni825       O827   1.926   1_565  S
O826       Ni831   1.936       .  S
C828        O829   1.273       .  A
C828        C977   1.500       .  S
C833        C834   1.399       .  A
C833        C838   1.400       .  A
C833        H843   1.084       .  S
C834        C839   1.485       .  S
C834        C835   1.410       .  A
C835        C836   1.403       .  A
C835        N840   1.429       .  S
C836        C837   1.407       .  A
C836        H841   1.084       .  S
C837        C838   1.420       .  A
C838        N842   1.432       .  S
C839        C844   1.414       .  A
C839        C848   1.400       .  A
N840        O855   1.262       .  A
N840        O856   1.262       .  A
N842        O853   1.262       .  A
N842        O854   1.262       .  A
C844        C845   1.407       .  A
C844        N849   1.433       .  S
C845        C846   1.403       .  A
C845        H850   1.084       .  S
C846        C847   1.415       .  A
C847        C848   1.398       .  A
C847        N851   1.433       .  S
C848        H852   1.084       .  S
N849        O859   1.262       .  A
N849        O860   1.262       .  A
N851        O857   1.262       .  A
N851        O858   1.262       .  A
C861        C862   1.402       .  A
C861        C866   1.401       .  A
C861        H871   1.084       .  S
C862        C867   1.481       .  S
C862        C863   1.411       .  A
C863        C864   1.403       .  A
C863        N868   1.434       .  S
C864        C865   1.406       .  A
C864        H869   1.084       .  S
C865        C866   1.411       .  A
C866        N870   1.429       .  S
C867        C872   1.412       .  A
C867        C876   1.398       .  A
N868        O883   1.263       .  A
N868        O884   1.262       .  A
N870        O881   1.262       .  A
N870        O882   1.262       .  A
C872        C873   1.404       .  A
C872        N877   1.431       .  S
C873        C874   1.404       .  A
C873        H878   1.083       .  S
C874        C875   1.417       .  A
C875        C876   1.398       .  A
C875        N879   1.431       .  S
C876        H880   1.084       .  S
N877        O887   1.262       .  A
N877        O888   1.262       .  A
N879        O885   1.262       .  A
N879        O886   1.262       .  A
C889        C890   1.407       .  A
C889        C894   1.417       .  A
C889        H899   1.083       .  S
C890        C895   1.502       .  S
C890        C891   1.409       .  A
C891        C892   1.405       .  A
C891        N896   1.434       .  S
C892        C893   1.414       .  A
C892        H897   1.083       .  S
C893        C894   1.421       .  A
C894        N898   1.431       .  S
C895        C900   1.412       .  A
C895        C904   1.403       .  A
N896        O911   1.262       .  A
N896        O912   1.263       .  A
N898        O909   1.262       .  A
N898        O910   1.262       .  A
C900        C901   1.414       .  A
C900        N905   1.427       .  S
C901        C902   1.410       .  A
C901        H906   1.083       .  S
C902        C903   1.418       .  A
C903        C904   1.404       .  A
C903        N907   1.428       .  S
C904        H908   1.084       .  S
N905        O915   1.262       .  A
N905        O916   1.262       .  A
N907        O913   1.262       .  A
N907        O914   1.262       .  A
C917        C918   1.403       .  A
C917        C922   1.399       .  A
C917        H927   1.084       .  S
C918        C923   1.492       .  S
C918        C919   1.416       .  A
C919        C920   1.405       .  A
C919        N924   1.432       .  S
C920        C921   1.404       .  A
C920        H925   1.084       .  S
C921        C922   1.415       .  A
C922        N926   1.431       .  S
C923        C928   1.415       .  A
C923        C932   1.401       .  A
N924        O939   1.262       .  A
N924        O940   1.262       .  A
N926        O937   1.262       .  A
N926        O938   1.262       .  A
C928        C929   1.405       .  A
C928        N933   1.432       .  S
C929        C930   1.405       .  A
C929        H934   1.083       .  S
C930        C931   1.419       .  A
C931        C932   1.399       .  A
C931        N935   1.432       .  S
C932        H936   1.084       .  S
N933        O943   1.262       .  A
N933        O944   1.262       .  A
N935        O941   1.262       .  A
N935        O942   1.262       .  A
C945        C946   1.401       .  A
C945        C950   1.398       .  A
C945        H955   1.084       .  S
C946        C951   1.485       .  S
C946        C947   1.414       .  A
C947        C948   1.403       .  A
C947        N952   1.435       .  S
C948        C949   1.406       .  A
C948        H953   1.082       .  S
C949        C950   1.415       .  A
C950        N954   1.429       .  S
C951        C956   1.414       .  A
C951        C960   1.405       .  A
N952        O967   1.262       .  A
N952        O968   1.262       .  A
N954        O965   1.262       .  A
N954        O966   1.262       .  A
C956        C957   1.402       .  A
C956        N961   1.439       .  S
C957        C958   1.407       .  A
C957        H962   1.084       .  S
C958        C959   1.411       .  A
C959        C960   1.401       .  A
C959        N963   1.432       .  S
C960        H964   1.084       .  S
N961        O971   1.263       .  A
N961        O972   1.263       .  A
N963        O969   1.262       .  A
N963        O970   1.262       .  A
C973        C974   1.405   1_545  A
C973        C978   1.412   1_545  A
C973        H983   1.084       .  S
C974        C979   1.490       .  S
C974        C975   1.405       .  A
C975        C976   1.401       .  A
C975        N980   1.429       .  S
C976        C977   1.410       .  A
C976        H981   1.084       .  S
C977        C978   1.417       .  A
C978        N982   1.430   1_565  S
C979        C984   1.409       .  A
C979        C988   1.402   1_565  A
N980        O995   1.262       .  A
N980        O996   1.262       .  A
N982        O993   1.261       .  A
N982        O994   1.262       .  A
C984        C985   1.408       .  A
C984        N989   1.429       .  S
C985        C986   1.408   1_565  A
C985        H990   1.084       .  S
C986        C987   1.416       .  A
C987        C988   1.406       .  A
C987        N991   1.429       .  S
C988        H992   1.084       .  S
N989        O999   1.262       .  A
N989       O1000   1.262       .  A
N991        O997   1.262       .  A
N991        O998   1.262       .  A
C1001      C1002   1.402       .  A
C1001      C1006   1.395       .  A
C1001      H1011   1.084       .  S
C1002      C1007   1.485   1_655  S
C1002      C1003   1.414       .  A
C1003      C1004   1.405       .  A
C1003      N1008   1.436       .  S
C1004      C1005   1.408       .  A
C1004      H1009   1.082       .  S
C1005      C1006   1.414       .  A
C1006      N1010   1.430       .  S
C1007      C1012   1.416       .  A
C1007      C1016   1.404   1_565  A
N1008      O1023   1.262   1_565  A
N1008      O1024   1.263       .  A
N1010      O1021   1.262       .  A
N1010      O1022   1.262       .  A
C1012      C1013   1.406       .  A
C1012      N1017   1.435       .  S
C1013      C1014   1.404   1_565  A
C1013      H1018   1.084       .  S
C1014      C1015   1.407       .  A
C1015      C1016   1.395       .  A
C1015      N1019   1.430       .  S
C1016      H1020   1.084       .  S
N1017      O1027   1.262       .  A
N1017      O1028   1.262       .  A
N1019      O1025   1.262       .  A
N1019      O1026   1.262       .  A
C1029      C1030   1.405       .  A
C1029      C1034   1.404       .  A
C1029      H1039   1.084       .  S
C1030      C1035   1.481       .  S
C1030      C1031   1.406       .  A
C1031      C1032   1.398       .  A
C1031      N1036   1.431       .  S
C1032      C1033   1.406       .  A
C1032      H1037   1.084       .  S
C1033      C1034   1.412       .  A
C1034      N1038   1.435       .  S
C1035      C1040   1.405       .  A
C1035      C1044   1.403       .  A
N1036      O1051   1.262       .  A
N1036      O1052   1.262       .  A
N1038      O1049   1.262       .  A
N1038      O1050   1.263       .  A
C1040      C1041   1.398       .  A
C1040      N1045   1.432       .  S
C1041      C1042   1.409       .  A
C1041      H1046   1.083       .  S
C1042      C1043   1.417       .  A
C1043      C1044   1.403       .  A
C1043      N1047   1.430       .  S
C1044      H1048   1.084       .  S
N1045      O1055   1.262       .  A
N1045      O1056   1.262       .  A
N1047      O1053   1.262       .  A
N1047      O1054   1.262       .  A
C1057      C1058   1.407       .  A
C1057      C1062   1.402       .  A
C1057      H1067   1.084       .  S
C1058      C1063   1.490       .  S
C1058      C1059   1.410       .  A
C1059      C1060   1.400       .  A
C1059      N1064   1.432       .  S
C1060      C1061   1.408       .  A
C1060      H1065   1.084       .  S
C1061      C1062   1.411       .  A
C1062      N1066   1.429       .  S
C1063      C1068   1.410       .  A
C1063      C1072   1.407       .  A
N1064      O1079   1.262       .  A
N1064      O1080   1.262       .  A
N1066      O1077   1.262       .  A
N1066      O1078   1.262       .  A
C1068      C1069   1.398       .  A
C1068      N1073   1.435       .  S
C1069      C1070   1.408       .  A
C1069      H1074   1.083       .  S
C1070      C1071   1.415       .  A
C1071      C1072   1.406       .  A
C1071      N1075   1.432       .  S
C1072      H1076   1.083       .  S
N1073      O1083   1.262       .  A
N1073      O1084   1.263       .  A
N1075      O1081   1.262       .  A
N1075      O1082   1.262       .  A
C1085      C1086   1.401       .  A
C1085      C1090   1.402       .  A
C1085      H1095   1.084       .  S
C1086      C1091   1.485   1_455  S
C1086      C1087   1.415       .  A
C1087      C1088   1.405       .  A
C1087      N1092   1.436       .  S
C1088      C1089   1.403       .  A
C1088      H1093   1.084       .  S
C1089      C1090   1.413       .  A
C1090      N1094   1.433       .  S
C1091      C1096   1.412       .  A
C1091      C1100   1.403       .  A
N1092      O1107   1.263   1_455  A
N1092      O1108   1.262       .  A
N1094      O1105   1.262       .  A
N1094      O1106   1.261       .  A
C1096      C1097   1.401       .  A
C1096      N1101   1.437       .  S
C1097      C1098   1.408       .  A
C1097      H1102   1.084       .  S
C1098      C1099   1.415       .  A
C1099      C1100   1.404       .  A
C1099      N1103   1.430       .  S
C1100      H1104   1.084       .  S
N1101      O1111   1.262   1_655  A
N1101      O1112   1.263       .  A
N1103      O1109   1.262       .  A
N1103      O1110   1.262       .  A
C1113      C1114   1.403       .  A
C1113      C1118   1.403       .  A
C1113      H1123   1.084       .  S
C1114      C1119   1.488   1_455  S
C1114      C1115   1.415       .  A
C1115      C1116   1.402       .  A
C1115      N1120   1.437       .  S
C1116      C1117   1.406       .  A
C1116      H1121   1.084       .  S
C1117      C1118   1.414       .  A
C1118      N1122   1.430       .  S
C1119      C1124   1.415       .  A
C1119      C1128   1.402       .  A
N1120      O1135   1.262   1_455  A
N1120      O1136   1.263       .  A
N1122      O1133   1.262       .  A
N1122      O1134   1.262       .  A
C1124      C1125   1.405       .  A
C1124      N1129   1.438       .  S
C1125      C1126   1.406       .  A
C1125      H1130   1.084       .  S
C1126      C1127   1.413       .  A
C1127      C1128   1.403       .  A
C1127      N1131   1.430       .  S
C1128      H1132   1.084       .  S
N1129      O1139   1.263   1_655  A
N1129      O1140   1.263       .  A
N1131      O1137   1.262       .  A
N1131      O1138   1.262       .  A
C1141      C1142   1.404       .  A
C1141      C1146   1.412       .  A
C1141      H1151   1.084       .  S
C1142      C1147   1.495       .  S
C1142      C1143   1.407       .  A
C1143      C1144   1.405       .  A
C1143      N1148   1.429       .  S
C1144      C1145   1.413       .  A
C1144      H1149   1.084       .  S
C1145      C1146   1.419       .  A
C1146      N1150   1.430       .  S
C1147      C1152   1.413       .  A
C1147      C1156   1.399       .  A
N1148      O1163   1.262       .  A
N1148      O1164   1.262       .  A
N1150      O1161   1.262       .  A
N1150      O1162   1.261       .  A
C1152      C1153   1.413       .  A
C1152      N1157   1.432       .  S
C1153      C1154   1.410       .  A
C1153      H1158   1.083       .  S
C1154      C1155   1.422       .  A
C1155      C1156   1.403       .  A
C1155      N1159   1.430       .  S
C1156      H1160   1.084       .  S
N1157      O1167   1.262       .  A
N1157      O1168   1.262       .  A
N1159      O1165   1.262       .  A
N1159      O1166   1.262       .  A
C1169      C1170   1.404       .  A
C1169      C1174   1.405       .  A
C1169      H1179   1.084       .  S
C1170      C1175   1.487       .  S
C1170      C1171   1.408       .  A
C1171      C1172   1.401       .  A
C1171      N1176   1.434       .  S
C1172      C1173   1.409       .  A
C1172      H1177   1.084       .  S
C1173      C1174   1.418       .  A
C1174      N1178   1.436       .  S
C1175      C1180   1.407       .  A
C1175      C1184   1.407       .  A
N1176      O1191   1.262       .  A
N1176      O1192   1.262       .  A
N1178      O1189   1.262       .  A
N1178      O1190   1.262       .  A
C1180      C1181   1.398       .  A
C1180      N1185   1.433       .  S
C1181      C1182   1.408       .  A
C1181      H1186   1.083       .  S
C1182      C1183   1.413       .  A
C1183      C1184   1.406       .  A
C1183      N1187   1.431       .  S
C1184      H1188   1.084       .  S
N1185      O1195   1.262       .  A
N1185      O1196   1.262       .  A
N1187      O1193   1.262       .  A
N1187      O1194   1.262       .  A
C1197      C1198   1.403       .  A
C1197      C1202   1.404       .  A
C1197      H1207   1.084       .  S
C1198      C1203   1.474       .  S
C1198      C1199   1.404       .  A
C1199      C1200   1.397       .  A
C1199      N1204   1.429       .  S
C1200      C1201   1.406       .  A
C1200      H1205   1.084       .  S
C1201      C1202   1.411       .  A
C1202      N1206   1.430       .  S
C1203      C1208   1.408       .  A
C1203      C1212   1.398       .  A
N1204      O1219   1.262       .  A
N1204      O1220   1.262       .  A
N1206      O1217   1.262       .  A
N1206      O1218   1.262       .  A
C1208      C1209   1.402       .  A
C1208      N1213   1.429       .  S
C1209      C1210   1.405       .  A
C1209      H1214   1.084       .  S
C1210      C1211   1.414       .  A
C1211      C1212   1.398       .  A
C1211      N1215   1.430       .  S
C1212      H1216   1.084       .  S
N1213      O1223   1.262       .  A
N1213      O1224   1.261       .  A
N1215      O1221   1.262       .  A
N1215      O1222   1.262       .  A
C1225      C1226   1.404       .  A
C1225      C1230   1.406       .  A
C1225      H1235   1.084       .  S
C1226      C1231   1.488   1_455  S
C1226      C1227   1.409       .  A
C1227      C1228   1.399       .  A
C1227      N1232   1.433       .  S
C1228      C1229   1.410       .  A
C1228      H1233   1.083       .  S
C1229      C1230   1.418       .  A
C1230      N1234   1.431       .  S
C1231      C1236   1.412   1_565  A
C1231      C1240   1.402       .  A
N1232      O1247   1.262       .  A
N1232      O1248   1.262   1_565  A
N1234      O1245   1.262       .  A
N1234      O1246   1.262       .  A
C1236      C1237   1.407       .  A
C1236      N1241   1.430       .  S
C1237      C1238   1.405   1_545  A
C1237      H1242   1.084       .  S
C1238      C1239   1.414       .  A
C1239      C1240   1.398       .  A
C1239      N1243   1.433       .  S
C1240      H1244   1.084       .  S
N1241      O1251   1.262       .  A
N1241      O1252   1.262   1_655  A
N1243      O1249   1.262       .  A
N1243      O1250   1.262       .  A
C1253      C1254   1.400   1_545  A
C1253      C1258   1.403       .  A
C1253      H1263   1.084       .  S
C1254      C1259   1.491       .  S
C1254      C1255   1.415       .  A
C1255      C1256   1.408       .  A
C1255      N1260   1.432       .  S
C1256      C1257   1.404   1_565  A
C1256      H1261   1.082       .  S
C1257      C1258   1.416       .  A
C1258      N1262   1.430       .  S
C1259      C1264   1.410       .  A
C1259      C1268   1.405       .  A
N1260      O1275   1.262       .  A
N1260      O1276   1.262       .  A
N1262      O1273   1.262       .  A
N1262      O1274   1.262       .  A
C1264      C1265   1.403       .  A
C1264      N1269   1.436       .  S
C1265      C1266   1.410       .  A
C1265      H1270   1.083       .  S
C1266      C1267   1.418       .  A
C1267      C1268   1.411       .  A
C1267      N1271   1.433       .  S
C1268      H1272   1.084   1_565  S
N1269      O1279   1.263       .  A
N1269      O1280   1.262       .  A
N1271      O1277   1.262   1_565  A
N1271      O1278   1.262       .  A
C1281      C1282   1.399       .  A
C1281      C1286   1.401       .  A
C1281      H1291   1.084       .  S
C1282      C1287   1.482       .  S
C1282      C1283   1.409       .  A
C1283      C1284   1.406       .  A
C1283      N1288   1.428       .  S
C1284      C1285   1.407       .  A
C1284      H1289   1.084       .  S
C1285      C1286   1.416       .  A
C1286      N1290   1.430       .  S
C1287      C1292   1.408       .  A
C1287      C1296   1.399       .  A
N1288      O1303   1.262       .  A
N1288      O1304   1.262       .  A
N1290      O1301   1.262       .  A
N1290      O1302   1.262       .  A
C1292      C1293   1.406       .  A
C1292      N1297   1.428       .  S
C1293      C1294   1.408       .  A
C1293      H1298   1.084       .  S
C1294      C1295   1.417       .  A
C1295      C1296   1.400       .  A
C1295      N1299   1.429       .  S
C1296      H1300   1.084       .  S
N1297      O1307   1.262       .  A
N1297      O1308   1.262       .  A
N1299      O1305   1.262       .  A
N1299      O1306   1.262       .  A
C1309      C1310   1.404       .  A
C1309      C1314   1.405       .  A
C1309      H1319   1.084       .  S
C1310      C1315   1.483       .  S
C1310      C1311   1.407       .  A
C1311      C1312   1.399       .  A
C1311      N1316   1.433       .  S
C1312      C1313   1.410       .  A
C1312      H1317   1.084       .  S
C1313      C1314   1.413       .  A
C1314      N1318   1.429       .  S
C1315      C1320   1.413       .  A
C1315      C1324   1.397       .  A
N1316      O1331   1.262       .  A
N1316      O1332   1.262       .  A
N1318      O1329   1.262       .  A
N1318      O1330   1.262       .  A
C1320      C1321   1.406   1_565  A
C1320      N1325   1.433       .  S
C1321      C1322   1.406       .  A
C1321      H1326   1.084       .  S
C1322      C1323   1.418       .  A
C1323      C1324   1.400   1_545  A
C1323      N1327   1.432       .  S
C1324      H1328   1.084       .  S
N1325      O1335   1.262       .  A
N1325      O1336   1.262       .  A
N1327      O1333   1.262       .  A
N1327      O1334   1.262       .  A
C1337      C1338   1.403       .  A
C1337      C1342   1.404       .  A
C1337      H1347   1.084       .  S
C1338      C1343   1.482       .  S
C1338      C1339   1.405       .  A
C1339      C1340   1.400       .  A
C1339      N1344   1.430       .  S
C1340      C1341   1.411       .  A
C1340      H1345   1.084       .  S
C1341      C1342   1.413       .  A
C1342      N1346   1.428       .  S
C1343      C1348   1.412       .  A
C1343      C1352   1.399       .  A
N1344      O1359   1.262       .  A
N1344      O1360   1.262       .  A
N1346      O1357   1.262       .  A
N1346      O1358   1.262       .  A
C1348      C1349   1.406       .  A
C1348      N1353   1.433       .  S
C1349      C1350   1.406       .  A
C1349      H1354   1.084       .  S
C1350      C1351   1.414       .  A
C1351      C1352   1.400       .  A
C1351      N1355   1.430       .  S
C1352      H1356   1.084       .  S
N1353      O1363   1.262       .  A
N1353      O1364   1.262       .  A
N1355      O1361   1.262       .  A
N1355      O1362   1.262       .  A
C1365      C1366   1.405       .  A
C1365      C1370   1.405       .  A
C1365      H1375   1.084       .  S
C1366      C1371   1.490       .  S
C1366      C1367   1.413       .  A
C1367      C1368   1.403       .  A
C1367      N1372   1.432       .  S
C1368      C1369   1.401       .  A
C1368      H1373   1.084       .  S
C1369      C1370   1.410       .  A
C1370      N1374   1.431       .  S
C1371      C1376   1.409       .  A
C1371      C1380   1.402       .  A
N1372      O1387   1.262       .  A
N1372      O1388   1.262       .  A
N1374      O1385   1.262       .  A
N1374      O1386   1.262       .  A
C1376      C1377   1.406       .  A
C1376      N1381   1.429       .  S
C1377      C1378   1.410       .  A
C1377      H1382   1.084       .  S
C1378      C1379   1.418       .  A
C1379      C1380   1.401       .  A
C1379      N1383   1.431       .  S
C1380      H1384   1.084       .  S
N1381      O1391   1.262       .  A
N1381      O1392   1.262       .  A
N1383      O1389   1.262       .  A
N1383      O1390   1.262       .  A
C1393      C1394   1.402       .  A
C1393      C1398   1.395       .  A
C1393      H1403   1.084       .  S
C1394      C1399   1.480       .  S
C1394      C1395   1.415       .  A
C1395      C1396   1.405       .  A
C1395      N1400   1.435       .  S
C1396      C1397   1.403       .  A
C1396      H1401   1.084       .  S
C1397      C1398   1.408       .  A
C1398      N1402   1.429       .  S
C1399      C1404   1.411       .  A
C1399      C1408   1.398       .  A
N1400      O1415   1.262       .  A
N1400      O1416   1.262       .  A
N1402      O1413   1.262       .  A
N1402      O1414   1.262       .  A
C1404      C1405   1.406       .  A
C1404      N1409   1.434       .  S
C1405      C1406   1.411       .  A
C1405      H1410   1.083       .  S
C1406      C1407   1.418       .  A
C1407      C1408   1.393       .  A
C1407      N1411   1.430       .  S
C1408      H1412   1.085       .  S
N1409      O1419   1.262       .  A
N1409      O1420   1.262       .  A
N1411      O1417   1.262       .  A
N1411      O1418   1.262       .  A
C1421      C1422   1.405       .  A
C1421      C1426   1.410       .  A
C1421      H1431   1.084       .  S
C1422      C1427   1.498       .  S
C1422      C1423   1.410       .  A
C1423      C1424   1.405       .  A
C1423      N1428   1.431       .  S
C1424      C1425   1.410       .  A
C1424      H1429   1.083       .  S
C1425      C1426   1.419       .  A
C1426      N1430   1.429       .  S
C1427      C1432   1.412       .  A
C1427      C1436   1.405       .  A
N1428      O1443   1.262       .  A
N1428      O1444   1.262       .  A
N1430      O1441   1.262       .  A
N1430      O1442   1.262       .  A
C1432      C1433   1.409       .  A
C1432      N1437   1.429       .  S
C1433      C1434   1.407       .  A
C1433      H1438   1.084       .  S
C1434      C1435   1.415       .  A
C1435      C1436   1.405       .  A
C1435      N1439   1.429       .  S
C1436      H1440   1.084       .  S
N1437      O1447   1.262       .  A
N1437      O1448   1.262       .  A
N1439      O1445   1.262       .  A
N1439      O1446   1.262       .  A
C1449      C1450   1.405       .  A
C1449      C1454   1.404       .  A
C1449      H1459   1.084       .  S
C1450      C1455   1.486       .  S
C1450      C1451   1.407       .  A
C1451      C1452   1.399       .  A
C1451      N1456   1.431       .  S
C1452      C1453   1.409       .  A
C1452      H1457   1.084       .  S
C1453      C1454   1.414       .  A
C1454      N1458   1.432       .  S
C1455      C1460   1.407       .  A
C1455      C1464   1.405       .  A
N1456      O1471   1.262       .  A
N1456      O1472   1.262       .  A
N1458      O1469   1.262       .  A
N1458      O1470   1.262       .  A
C1460      C1461   1.399       .  A
C1460      N1465   1.430       .  S
C1461      C1462   1.407       .  A
C1461      H1466   1.084       .  S
C1462      C1463   1.414       .  A
C1463      C1464   1.404       .  A
C1463      N1467   1.430       .  S
C1464      H1468   1.084       .  S
N1465      O1475   1.262       .  A
N1465      O1476   1.262       .  A
N1467      O1473   1.262       .  A
N1467      O1474   1.262       .  A
C1477      C1478   1.406       .  A
C1477      C1482   1.401       .  A
C1477      H1487   1.084       .  S
C1478      C1483   1.487       .  S
C1478      C1479   1.409       .  A
C1479      C1480   1.400       .  A
C1479      N1484   1.433       .  S
C1480      C1481   1.409       .  A
C1480      H1485   1.083       .  S
C1481      C1482   1.413       .  A
C1482      N1486   1.429       .  S
C1483      C1488   1.409       .  A
C1483      C1492   1.408       .  A
N1484      O1499   1.262       .  A
N1484      O1500   1.262       .  A
N1486      O1497   1.262       .  A
N1486      O1498   1.262       .  A
C1488      C1489   1.396   1_545  A
C1488      N1493   1.434       .  S
C1489      C1490   1.407       .  A
C1489      H1494   1.084       .  S
C1490      C1491   1.412       .  A
C1491      C1492   1.406   1_565  A
C1491      N1495   1.432       .  S
C1492      H1496   1.084       .  S
N1493      O1503   1.262       .  A
N1493      O1504   1.262       .  A
N1495      O1501   1.262       .  A
N1495      O1502   1.262       .  A
C1505      C1506   1.403       .  A
C1505      C1510   1.407       .  A
C1505      H1515   1.084       .  S
C1506      C1511   1.482       .  S
C1506      C1507   1.406       .  A
C1507      C1508   1.396       .  A
C1507      N1512   1.430       .  S
C1508      C1509   1.406       .  A
C1508      H1513   1.084       .  S
C1509      C1510   1.418       .  A
C1510      N1514   1.433       .  S
C1511      C1516   1.410       .  A
C1511      C1520   1.403       .  A
N1512      O1527   1.262       .  A
N1512      O1528   1.262       .  A
N1514      O1525   1.262       .  A
N1514      O1526   1.263       .  A
C1516      C1517   1.404       .  A
C1516      N1521   1.433       .  S
C1517      C1518   1.406       .  A
C1517      H1522   1.084       .  S
C1518      C1519   1.412       .  A
C1519      C1520   1.400       .  A
C1519      N1523   1.434       .  S
C1520      H1524   1.084       .  S
N1521      O1531   1.262       .  A
N1521      O1532   1.262       .  A
N1523      O1529   1.263       .  A
N1523      O1530   1.262       .  A
C1533      C1534   1.407       .  A
C1533      C1538   1.414       .  A
C1533      H1543   1.083       .  S
C1534      C1539   1.495       .  S
C1534      C1535   1.408       .  A
C1535      C1536   1.398       .  A
C1535      N1540   1.431       .  S
C1536      C1537   1.408       .  A
C1536      H1541   1.084       .  S
C1537      C1538   1.419       .  A
C1538      N1542   1.432       .  S
C1539      C1544   1.411       .  A
C1539      C1548   1.400       .  A
N1540      O1555   1.262       .  A
N1540      O1556   1.262       .  A
N1542      O1553   1.262       .  A
N1542      O1554   1.262       .  A
C1544      C1545   1.410       .  A
C1544      N1549   1.428       .  S
C1545      C1546   1.410       .  A
C1545      H1550   1.083       .  S
C1546      C1547   1.421       .  A
C1547      C1548   1.400       .  A
C1547      N1551   1.429       .  S
C1548      H1552   1.084       .  S
N1549      O1559   1.262       .  A
N1549      O1560   1.262       .  A
N1551      O1557   1.262       .  A
N1551      O1558   1.262       .  A
C1561      C1562   1.406       .  A
C1561      C1566   1.405       .  A
C1561      H1571   1.083       .  S
C1562      C1567   1.491       .  S
C1562      C1563   1.413       .  A
C1563      C1564   1.398       .  A
C1563      N1568   1.433       .  S
C1564      C1565   1.405       .  A
C1564      H1569   1.084       .  S
C1565      C1566   1.414       .  A
C1566      N1570   1.430       .  S
C1567      C1572   1.413       .  A
C1567      C1576   1.405       .  A
N1568      O1583   1.262       .  A
N1568      O1584   1.262       .  A
N1570      O1581   1.261       .  A
N1570      O1582   1.262       .  A
C1572      C1573   1.404       .  A
C1572      N1577   1.430       .  S
C1573      C1574   1.405       .  A
C1573      H1578   1.084       .  S
C1574      C1575   1.413       .  A
C1575      C1576   1.398       .  A
C1575      N1579   1.431       .  S
C1576      H1580   1.084       .  S
N1577      O1587   1.262       .  A
N1577      O1588   1.262       .  A
N1579      O1585   1.262       .  A
N1579      O1586   1.262       .  A
C1589      C1590   1.401       .  A
C1589      C1594   1.397       .  A
C1589      H1599   1.084       .  S
C1590      C1595   1.486       .  S
C1590      C1591   1.415       .  A
C1591      C1592   1.408       .  A
C1591      N1596   1.436       .  S
C1592      C1593   1.407       .  A
C1592      H1597   1.084       .  S
C1593      C1594   1.412       .  A
C1594      N1598   1.432       .  S
C1595      C1600   1.412       .  A
C1595      C1604   1.403       .  A
N1596      O1611   1.262       .  A
N1596      O1612   1.263       .  A
N1598      O1609   1.262       .  A
N1598      O1610   1.262       .  A
C1600      C1601   1.405       .  A
C1600      N1605   1.433       .  S
C1601      C1602   1.409       .  A
C1601      H1606   1.084       .  S
C1602      C1603   1.412       .  A
C1603      C1604   1.399       .  A
C1603      N1607   1.430       .  S
C1604      H1608   1.084       .  S
N1605      O1615   1.262       .  A
N1605      O1616   1.262       .  A
N1607      O1613   1.262       .  A
N1607      O1614   1.262       .  A
C1617      C1618   1.405       .  A
C1617      C1622   1.408       .  A
C1617      H1627   1.084       .  S
C1618      C1623   1.484       .  S
C1618      C1619   1.404       .  A
C1619      C1620   1.399       .  A
C1619      N1624   1.431       .  S
C1620      C1621   1.410       .  A
C1620      H1625   1.084       .  S
C1621      C1622   1.416       .  A
C1622      N1626   1.433       .  S
C1623      C1628   1.405       .  A
C1623      C1632   1.405       .  A
N1624      O1639   1.262       .  A
N1624      O1640   1.262       .  A
N1626      O1637   1.262       .  A
N1626      O1638   1.262       .  A
C1628      C1629   1.400       .  A
C1628      N1633   1.430       .  S
C1629      C1630   1.409       .  A
C1629      H1634   1.084       .  S
C1630      C1631   1.415       .  A
C1631      C1632   1.405       .  A
C1631      N1635   1.431       .  S
C1632      H1636   1.084       .  S
N1633      O1643   1.262       .  A
N1633      O1644   1.262       .  A
N1635      O1641   1.262       .  A
N1635      O1642   1.262       .  A
C1645      C1646   1.400       .  A
C1645      C1650   1.398   1_545  A
C1645      H1655   1.084       .  S
C1646      C1651   1.491       .  S
C1646      C1647   1.413       .  A
C1647      C1648   1.405   1_545  A
C1647      N1652   1.431       .  S
C1648      C1649   1.407       .  A
C1648      H1653   1.083       .  S
C1649      C1650   1.421       .  A
C1650      N1654   1.430       .  S
C1651      C1656   1.415       .  A
C1651      C1660   1.404       .  A
N1652      O1667   1.262       .  A
N1652      O1668   1.262       .  A
N1654      O1665   1.262       .  A
N1654      O1666   1.262       .  A
C1656      C1657   1.402       .  A
C1656      N1661   1.433       .  S
C1657      C1658   1.404       .  A
C1657      H1662   1.083       .  S
C1658      C1659   1.413       .  A
C1659      C1660   1.401       .  A
C1659      N1663   1.431       .  S
C1660      H1664   1.083       .  S
N1661      O1671   1.262       .  A
N1661      O1672   1.262       .  A
N1663      O1669   1.262       .  A
N1663      O1670   1.262       .  A
C1673      C1674   1.403       .  A
C1673      C1678   1.404       .  A
C1673      H1683   1.084       .  S
C1674      C1679   1.481       .  S
C1674      C1675   1.409       .  A
C1675      C1676   1.396       .  A
C1675      N1680   1.432       .  S
C1676      C1677   1.404       .  A
C1676      H1681   1.084       .  S
C1677      C1678   1.416       .  A
C1678      N1682   1.432       .  S
C1679      C1684   1.409       .  A
C1679      C1688   1.401       .  A
N1680      O1695   1.262       .  A
N1680      O1696   1.262       .  A
N1682      O1693   1.262       .  A
N1682      O1694   1.263       .  A
C1684      C1685   1.404       .  A
C1684      N1689   1.430       .  S
C1685      C1686   1.407       .  A
C1685      H1690   1.084       .  S
C1686      C1687   1.414       .  A
C1687      C1688   1.397       .  A
C1687      N1691   1.434       .  S
C1688      H1692   1.084       .  S
N1689      O1699   1.262       .  A
N1689      O1700   1.262       .  A
N1691      O1697   1.263       .  A
N1691      O1698   1.262       .  A
C1701      C1702   1.403       .  A
C1701      C1706   1.403       .  A
C1701      H1711   1.084       .  S
C1702      C1707   1.488       .  S
C1702      C1703   1.415       .  A
C1703      C1704   1.403       .  A
C1703      N1708   1.438       .  S
C1704      C1705   1.405       .  A
C1704      H1709   1.084       .  S
C1705      C1706   1.413       .  A
C1706      N1710   1.430       .  S
C1707      C1712   1.415       .  A
C1707      C1716   1.404       .  A
N1708      O1723   1.263       .  A
N1708      O1724   1.263       .  A
N1710      O1721   1.262       .  A
N1710      O1722   1.262       .  A
C1712      C1713   1.401       .  A
C1712      N1717   1.437       .  S
C1713      C1714   1.403       .  A
C1713      H1718   1.084       .  S
C1714      C1715   1.413       .  A
C1715      C1716   1.405       .  A
C1715      N1719   1.431       .  S
C1716      H1720   1.084       .  S
N1717      O1727   1.263       .  A
N1717      O1728   1.263       .  A
N1719      O1725   1.262       .  A
N1719      O1726   1.262       .  A
C1729      C1730   1.405       .  A
C1729      C1734   1.404       .  A
C1729      H1739   1.084       .  S
C1730      C1735   1.487       .  S
C1730      C1731   1.411       .  A
C1731      C1732   1.398       .  A
C1731      N1736   1.432       .  S
C1732      C1733   1.405       .  A
C1732      H1737   1.084       .  S
C1733      C1734   1.414       .  A
C1734      N1738   1.429       .  S
C1735      C1740   1.410       .  A
C1735      C1744   1.404       .  A
N1736      O1751   1.262       .  A
N1736      O1752   1.262       .  A
N1738      O1749   1.262       .  A
N1738      O1750   1.262       .  A
C1740      C1741   1.404       .  A
C1740      N1745   1.431       .  S
C1741      C1742   1.406       .  A
C1741      H1746   1.084       .  S
C1742      C1743   1.412       .  A
C1743      C1744   1.400       .  A
C1743      N1747   1.432       .  S
C1744      H1748   1.084       .  S
N1745      O1755   1.262       .  A
N1745      O1756   1.262       .  A
N1747      O1753   1.262       .  A
N1747      O1754   1.262       .  A
C1757      C1758   1.401       .  A
C1757      C1762   1.395       .  A
C1757      H1767   1.084       .  S
C1758      C1763   1.484       .  S
C1758      C1759   1.414       .  A
C1759      C1760   1.405       .  A
C1759      N1764   1.435       .  S
C1760      C1761   1.407       .  A
C1760      H1765   1.084       .  S
C1761      C1762   1.413       .  A
C1762      N1766   1.430       .  S
C1763      C1768   1.415       .  A
C1763      C1772   1.403       .  A
N1764      O1779   1.262       .  A
N1764      O1780   1.262       .  A
N1766      O1777   1.262       .  A
N1766      O1778   1.262       .  A
C1768      C1769   1.405       .  A
C1768      N1773   1.436       .  S
C1769      C1770   1.406       .  A
C1769      H1774   1.084       .  S
C1770      C1771   1.409       .  A
C1771      C1772   1.397       .  A
C1771      N1775   1.432       .  S
C1772      H1776   1.084       .  S
N1773      O1783   1.263       .  A
N1773      O1784   1.262       .  A
N1775      O1781   1.262       .  A
N1775      O1782   1.262       .  A
C1785      C1786   1.404       .  A
C1785      C1790   1.411       .  A
C1785      H1795   1.084       .  S
C1786      C1791   1.486       .  S
C1786      C1787   1.406       .  A
C1787      C1788   1.398       .  A
C1787      N1792   1.429       .  S
C1788      C1789   1.408       .  A
C1788      H1793   1.084       .  S
C1789      C1790   1.420       .  A
C1790      N1794   1.433       .  S
C1791      C1796   1.409       .  A
C1791      C1800   1.397       .  A
N1792      O1807   1.262       .  A
N1792      O1808   1.262       .  A
N1794      O1805   1.262       .  A
N1794      O1806   1.262       .  A
C1796      C1797   1.409       .  A
C1796      N1801   1.428       .  S
C1797      C1798   1.410       .  A
C1797      H1802   1.083       .  S
C1798      C1799   1.421       .  A
C1799      C1800   1.398       .  A
C1799      N1803   1.429       .  S
C1800      H1804   1.084       .  S
N1801      O1811   1.262       .  A
N1801      O1812   1.262       .  A
N1803      O1809   1.262       .  A
N1803      O1810   1.262       .  A
C1813      C1814   1.408       .  A
C1813      C1818   1.406       .  A
C1813      H1823   1.083       .  S
C1814      C1819   1.490       .  S
C1814      C1815   1.410       .  A
C1815      C1816   1.399       .  A
C1815      N1820   1.434       .  S
C1816      C1817   1.407   1_565  A
C1816      H1821   1.084   1_565  S
C1817      C1818   1.411   1_545  A
C1818      N1822   1.430   1_565  S
C1819      C1824   1.410       .  A
C1819      C1828   1.406       .  A
N1820      O1835   1.262       .  A
N1820      O1836   1.262       .  A
N1822      O1833   1.262       .  A
N1822      O1834   1.262       .  A
C1824      C1825   1.402       .  A
C1824      N1829   1.432       .  S
C1825      C1826   1.408       .  A
C1825      H1830   1.084       .  S
C1826      C1827   1.413       .  A
C1827      C1828   1.403       .  A
C1827      N1831   1.429       .  S
C1828      H1832   1.084       .  S
N1829      O1839   1.262       .  A
N1829      O1840   1.262       .  A
N1831      O1837   1.262       .  A
N1831      O1838   1.262       .  A
C1841      C1842   1.399       .  A
C1841      C1846   1.396       .  A
C1841      H1851   1.084       .  S
C1842      C1847   1.477       .  S
C1842      C1843   1.412       .  A
C1843      C1844   1.404       .  A
C1843      N1848   1.433       .  S
C1844      C1845   1.403       .  A
C1844      H1849   1.084       .  S
C1845      C1846   1.411       .  A
C1846      N1850   1.429       .  S
C1847      C1852   1.407       .  A
C1847      C1856   1.401       .  A
N1848      O1863   1.262       .  A
N1848      O1864   1.262       .  A
N1850      O1861   1.262       .  A
N1850      O1862   1.262       .  A
C1852      C1853   1.398       .  A
C1852      N1857   1.433       .  S
C1853      C1854   1.410       .  A
C1853      H1858   1.083       .  S
C1854      C1855   1.417       .  A
C1855      C1856   1.402       .  A
C1855      N1859   1.430       .  S
C1856      H1860   1.084       .  S
N1857      O1867   1.262       .  A
N1857      O1868   1.262       .  A
N1859      O1865   1.262       .  A
N1859      O1866   1.262       .  A
C1869      C1870   1.407       .  A
C1869      C1874   1.403       .  A
C1869      H1879   1.084       .  S
C1870      C1875   1.486       .  S
C1870      C1871   1.411       .  A
C1871      C1872   1.401       .  A
C1871      N1876   1.430       .  S
C1872      C1873   1.401       .  A
C1872      H1877   1.084       .  S
C1873      C1874   1.406       .  A
C1874      N1878   1.428       .  S
C1875      C1880   1.408       .  A
C1875      C1884   1.405       .  A
N1876      O1891   1.262       .  A
N1876      O1892   1.262       .  A
N1878      O1889   1.262       .  A
N1878      O1890   1.262       .  A
C1880      C1881   1.399       .  A
C1880      N1885   1.430       .  S
C1881      C1882   1.407       .  A
C1881      H1886   1.084       .  S
C1882      C1883   1.414       .  A
C1883      C1884   1.404       .  A
C1883      N1887   1.429       .  S
C1884      H1888   1.084       .  S
N1885      O1895   1.262       .  A
N1885      O1896   1.262       .  A
N1887      O1893   1.262       .  A
N1887      O1894   1.262       .  A
C1897      C1898   1.403       .  A
C1897      C1902   1.396       .  A
C1897      H1907   1.084       .  S
C1898      C1903   1.489       .  S
C1898      C1899   1.415       .  A
C1899      C1900   1.407       .  A
C1899      N1904   1.436       .  S
C1900      C1901   1.408       .  A
C1900      H1905   1.083       .  S
C1901      C1902   1.414       .  A
C1902      N1906   1.430       .  S
C1903      C1908   1.416       .  A
C1903      C1912   1.404       .  A
N1904      O1919   1.262       .  A
N1904      O1920   1.263       .  A
N1906      O1917   1.262       .  A
N1906      O1918   1.262       .  A
C1908      C1909   1.407       .  A
C1908      N1913   1.436       .  S
C1909      C1910   1.406       .  A
C1909      H1914   1.084       .  S
C1910      C1911   1.409       .  A
C1911      C1912   1.397       .  A
C1911      N1915   1.430       .  S
C1912      H1916   1.084       .  S
N1913      O1923   1.262       .  A
N1913      O1924   1.263       .  A
N1915      O1921   1.262       .  A
N1915      O1922   1.262       .  A
C1925      C1926   1.398       .  A
C1925      C1930   1.401       .  A
C1925      H1935   1.084       .  S
C1926      C1931   1.487       .  S
C1926      C1927   1.412       .  A
C1927      C1928   1.409       .  A
C1927      N1932   1.432       .  S
C1928      C1929   1.408       .  A
C1928      H1933   1.083       .  S
C1929      C1930   1.420       .  A
C1930      N1934   1.430       .  S
C1931      C1936   1.408       .  A
C1931      C1940   1.403       .  A
N1932      O1947   1.262       .  A
N1932      O1948   1.262       .  A
N1934      O1945   1.262       .  A
N1934      O1946   1.262       .  A
C1936      C1937   1.403       .  A
C1936      N1941   1.430       .  S
C1937      C1938   1.409       .  A
C1937      H1942   1.084       .  S
C1938      C1939   1.416       .  A
C1939      C1940   1.406       .  A
C1939      N1943   1.429       .  S
C1940      H1944   1.084       .  S
N1941      O1951   1.262       .  A
N1941      O1952   1.262       .  A
N1943      O1949   1.262       .  A
N1943      O1950   1.262       .  A
C1953      C1954   1.402       .  A
C1953      C1958   1.399       .  A
C1953      H1963   1.084       .  S
C1954      C1959   1.502       .  S
C1954      C1955   1.415       .  A
C1955      C1956   1.414       .  A
C1955      N1960   1.429       .  S
C1956      C1957   1.409       .  A
C1956      H1961   1.083       .  S
C1957      C1958   1.421       .  A
C1958      N1962   1.430       .  S
C1959      C1964   1.415       .  A
C1959      C1968   1.407       .  A
N1960      O1975   1.262       .  A
N1960      O1976   1.262       .  A
N1962      O1973   1.262       .  A
N1962      O1974   1.262       .  A
C1964      C1965   1.405       .  A
C1964      N1969   1.434       .  S
C1965      C1966   1.403       .  A
C1965      H1970   1.084       .  S
C1966      C1967   1.419       .  A
C1967      C1968   1.413       .  A
C1967      N1971   1.439       .  S
C1968      H1972   1.083       .  S
N1969      O1979   1.262       .  A
N1969      O1980   1.262       .  A
N1971      O1977   1.263       .  A
N1971      O1978   1.263       .  A
C1981      C1982   1.399       .  A
C1981      C1986   1.401       .  A
C1981      H1991   1.084       .  S
C1982      C1987   1.493       .  S
C1982      C1983   1.412       .  A
C1983      C1984   1.414       .  A
C1983      N1988   1.428       .  S
C1984      C1985   1.408       .  A
C1984      H1989   1.084       .  S
C1985      C1986   1.416       .  A
C1986      N1990   1.432       .  S
C1987      C1992   1.408       .  A
C1987      C1996   1.406       .  A
N1988      O2003   1.262       .  A
N1988      O2004   1.262       .  A
N1990      O2001   1.262       .  A
N1990      O2002   1.262       .  A
C1992      C1993   1.403       .  A
C1992      N1997   1.429       .  S
C1993      C1994   1.408       .  A
C1993      H1998   1.084       .  S
C1994      C1995   1.416       .  A
C1995      C1996   1.412       .  A
C1995      N1999   1.429       .  S
C1996      H2000   1.084       .  S
N1997      O2007   1.262       .  A
N1997      O2008   1.262       .  A
N1999      O2005   1.262       .  A
N1999      O2006   1.262       .  A
C2009      C2010   1.401       .  A
C2009      C2014   1.402       .  A
C2009      H2019   1.084       .  S
C2010      C2015   1.486       .  S
C2010      C2011   1.412       .  A
C2011      C2012   1.403       .  A
C2011      N2016   1.432       .  S
C2012      C2013   1.404       .  A
C2012      H2017   1.084       .  S
C2013      C2014   1.418       .  A
C2014      N2018   1.432       .  S
C2015      C2020   1.411       .  A
C2015      C2024   1.400       .  A
N2016      O2031   1.262       .  A
N2016      O2032   1.262       .  A
N2018      O2029   1.262       .  A
N2018      O2030   1.262       .  A
C2020      C2021   1.406       .  A
C2020      N2025   1.430       .  S
C2021      C2022   1.407       .  A
C2021      H2026   1.083       .  S
C2022      C2023   1.418       .  A
C2023      C2024   1.399       .  A
C2023      N2027   1.432       .  S
C2024      H2028   1.084       .  S
N2025      O2035   1.262       .  A
N2025      O2036   1.262       .  A
N2027      O2033   1.262       .  A
N2027      O2034   1.262       .  A
C2037      C2038   1.399       .  A
C2037      C2042   1.399       .  A
C2037      H2047   1.084       .  S
C2038      C2043   1.485       .  S
C2038      C2039   1.413       .  A
C2039      C2040   1.405       .  A
C2039      N2044   1.431       .  S
C2040      C2041   1.403       .  A
C2040      H2045   1.084       .  S
C2041      C2042   1.417       .  A
C2042      N2046   1.433       .  S
C2043      C2048   1.412       .  A
C2043      C2052   1.399       .  A
N2044      O2059   1.262       .  A
N2044      O2060   1.262       .  A
N2046      O2057   1.263       .  A
N2046      O2058   1.262       .  A
C2048      C2049   1.406       .  A
C2048      N2053   1.431       .  S
C2049      C2050   1.406       .  A
C2049      H2054   1.084       .  S
C2050      C2051   1.418       .  A
C2051      C2052   1.398       .  A
C2051      N2055   1.433       .  S
C2052      H2056   1.084       .  S
N2053      O2063   1.262       .  A
N2053      O2064   1.262       .  A
N2055      O2061   1.262       .  A
N2055      O2062   1.262       .  A
C2065      C2066   1.408       .  A
C2065      C2070   1.415       .  A
C2065      H2075   1.083       .  S
C2066      C2071   1.496   1_554  S
C2066      C2067   1.409       .  A
C2067      C2068   1.402       .  A
C2067      N2072   1.430       .  S
C2068      C2069   1.406       .  A
C2068      H2073   1.084       .  S
C2069      C2070   1.414       .  A
C2070      N2074   1.428       .  S
C2071      C2076   1.409       .  A
C2071      C2080   1.407       .  A
N2072      O2087   1.262   1_554  A
N2072      O2088   1.262       .  A
N2074      O2085   1.262       .  A
N2074      O2086   1.262       .  A
C2076      C2077   1.402       .  A
C2076      N2081   1.430       .  S
C2077      C2078   1.407       .  A
C2077      H2082   1.084       .  S
C2078      C2079   1.415       .  A
C2079      C2080   1.414       .  A
C2079      N2083   1.428       .  S
C2080      H2084   1.083       .  S
N2081      O2091   1.262   1_556  A
N2081      O2092   1.262       .  A
N2083      O2089   1.262       .  A
N2083      O2090   1.262       .  A
C2093      C2094   1.402       .  A
C2093      C2098   1.405       .  A
C2093      H2103   1.084       .  S
C2094      C2099   1.494       .  S
C2094      C2095   1.411       .  A
C2095      C2096   1.407       .  A
C2095      N2100   1.430       .  S
C2096      C2097   1.408       .  A
C2096      H2101   1.083       .  S
C2097      C2098   1.420       .  A
C2098      N2102   1.432       .  S
C2099      C2104   1.414       .  A
C2099      C2108   1.402       .  A
N2100      O2115   1.262       .  A
N2100      O2116   1.262       .  A
N2102      O2113   1.262       .  A
N2102      O2114   1.262       .  A
C2104      C2105   1.408       .  A
C2104      N2109   1.430       .  S
C2105      C2106   1.406       .  A
C2105      H2110   1.084       .  S
C2106      C2107   1.415       .  A
C2107      C2108   1.402       .  A
C2107      N2111   1.430       .  S
C2108      H2112   1.084       .  S
N2109      O2119   1.262       .  A
N2109      O2120   1.262       .  A
N2111      O2117   1.262       .  A
N2111      O2118   1.262       .  A
C2121      C2122   1.406       .  A
C2121      C2126   1.410       .  A
C2121      H2131   1.084       .  S
C2122      C2127   1.495   1_556  S
C2122      C2123   1.414       .  A
C2123      C2124   1.405       .  A
C2123      N2128   1.436       .  S
C2124      C2125   1.404       .  A
C2124      H2129   1.084       .  S
C2125      C2126   1.413       .  A
C2126      N2130   1.429       .  S
C2127      C2132   1.412       .  A
C2127      C2136   1.406       .  A
N2128      O2143   1.263   1_556  A
N2128      O2144   1.262       .  A
N2130      O2141   1.262       .  A
N2130      O2142   1.262       .  A
C2132      C2133   1.401       .  A
C2132      N2137   1.435       .  S
C2133      C2134   1.408       .  A
C2133      H2138   1.083       .  S
C2134      C2135   1.416       .  A
C2135      C2136   1.413       .  A
C2135      N2139   1.427       .  S
C2136      H2140   1.083       .  S
N2137      O2147   1.262   1_554  A
N2137      O2148   1.262       .  A
N2139      O2145   1.262       .  A
N2139      O2146   1.261       .  A
C2149      C2150   1.401       .  A
C2149      C2154   1.402       .  A
C2149      H2159   1.084       .  S
C2150      C2155   1.482       .  S
C2150      C2151   1.410       .  A
C2151      C2152   1.405       .  A
C2151      N2156   1.432       .  S
C2152      C2153   1.405       .  A
C2152      H2157   1.084       .  S
C2153      C2154   1.416       .  A
C2154      N2158   1.435       .  S
C2155      C2160   1.407       .  A
C2155      C2164   1.399       .  A
N2156      O2171   1.262       .  A
N2156      O2172   1.262       .  A
N2158      O2169   1.262       .  A
N2158      O2170   1.263       .  A
C2160      C2161   1.403       .  A
C2160      N2165   1.430       .  S
C2161      C2162   1.407       .  A
C2161      H2166   1.084       .  S
C2162      C2163   1.421       .  A
C2163      C2164   1.403       .  A
C2163      N2167   1.433       .  S
C2164      H2168   1.084       .  S
N2165      O2175   1.262       .  A
N2165      O2176   1.262       .  A
N2167      O2173   1.262       .  A
N2167      O2174   1.262       .  A
C2177      C2178   1.407       .  A
C2177      C2182   1.406       .  A
C2177      H2187   1.084       .  S
C2178      C2183   1.486       .  S
C2178      C2179   1.407       .  A
C2179      C2180   1.397       .  A
C2179      N2184   1.432       .  S
C2180      C2181   1.408       .  A
C2180      H2185   1.084       .  S
C2181      C2182   1.414       .  A
C2182      N2186   1.431       .  S
C2183      C2188   1.407       .  A
C2183      C2192   1.407       .  A
N2184      O2199   1.262       .  A
N2184      O2200   1.262       .  A
N2186      O2197   1.262       .  A
N2186      O2198   1.262       .  A
C2188      C2189   1.398       .  A
C2188      N2193   1.432       .  S
C2189      C2190   1.409       .  A
C2189      H2194   1.084       .  S
C2190      C2191   1.412       .  A
C2191      C2192   1.404       .  A
C2191      N2195   1.431       .  S
C2192      H2196   1.084       .  S
N2193      O2203   1.262       .  A
N2193      O2204   1.262       .  A
N2195      O2201   1.262       .  A
N2195      O2202   1.262       .  A
C2205      C2206   1.401       .  A
C2205      C2210   1.401       .  A
C2205      H2215   1.084       .  S
C2206      C2211   1.493   1_545  S
C2206      C2207   1.415       .  A
C2207      C2208   1.412       .  A
C2207      N2212   1.432       .  S
C2208      C2209   1.408       .  A
C2208      H2213   1.084       .  S
C2209      C2210   1.414       .  A
C2210      N2214   1.429       .  S
C2211      C2216   1.415   1_565  A
C2211      C2220   1.400       .  A
N2212      O2227   1.262   1_545  A
N2212      O2228   1.262       .  A
N2214      O2225   1.262       .  A
N2214      O2226   1.262       .  A
C2216      C2217   1.413       .  A
C2216      N2221   1.434       .  S
C2217      C2218   1.410   1_545  A
C2217      H2222   1.083       .  S
C2218      C2219   1.419       .  A
C2219      C2220   1.401       .  A
C2219      N2223   1.431       .  S
C2220      H2224   1.084       .  S
N2221      O2231   1.262       .  A
N2221      O2232   1.262       .  A
N2223      O2229   1.262       .  A
N2223      O2230   1.262       .  A
C2233      C2234   1.406       .  A
C2233      C2238   1.413       .  A
C2233      H2243   1.084       .  S
C2234      C2239   1.492   1_556  S
C2234      C2235   1.407       .  A
C2235      C2236   1.399       .  A
C2235      N2240   1.433       .  S
C2236      C2237   1.410       .  A
C2236      H2241   1.083       .  S
C2237      C2238   1.420       .  A
C2238      N2242   1.433       .  S
C2239      C2244   1.412       .  A
C2239      C2248   1.405       .  A
N2240      O2255   1.262       .  A
N2240      O2256   1.262   1_556  A
N2242      O2253   1.262       .  A
N2242      O2254   1.262       .  A
C2244      C2245   1.407       .  A
C2244      N2249   1.431       .  S
C2245      C2246   1.404       .  A
C2245      H2250   1.084       .  S
C2246      C2247   1.409       .  A
C2247      C2248   1.404       .  A
C2247      N2251   1.429       .  S
C2248      H2252   1.084       .  S
N2249      O2259   1.262       .  A
N2249      O2260   1.262       .  A
N2251      O2257   1.262       .  A
N2251      O2258   1.261       .  A
C2261      C2262   1.404       .  A
C2261      C2266   1.401       .  A
C2261      H2271   1.084       .  S
C2262      C2267   1.484   1_445  S
C2262      C2263   1.410   1_545  A
C2263      C2264   1.404   1_565  A
C2263      N2268   1.433       .  S
C2264      C2265   1.406       .  A
C2264      H2269   1.084   1_545  S
C2265      C2266   1.412       .  A
C2266      N2270   1.433       .  S
C2267      C2272   1.408       .  A
C2267      C2276   1.404       .  A
N2268      O2283   1.262       .  A
N2268      O2284   1.262       .  A
N2270      O2281   1.262       .  A
N2270      O2282   1.262       .  A
C2272      C2273   1.397       .  A
C2272      N2277   1.431       .  S
C2273      C2274   1.405       .  A
C2273      H2278   1.084       .  S
C2274      C2275   1.415       .  A
C2275      C2276   1.404       .  A
C2275      N2279   1.431   1_565  S
C2276      H2280   1.084   1_565  S
N2277      O2287   1.262       .  A
N2277      O2288   1.262   1_655  A
N2279      O2285   1.262       .  A
N2279      O2286   1.262   1_545  A
C2289      C2290   1.408       .  A
C2289      C2294   1.412       .  A
C2289      H2299   1.083       .  S
C2290      C2295   1.498   1_556  S
C2290      C2291   1.412       .  A
C2291      C2292   1.399       .  A
C2291      N2296   1.432       .  S
C2292      C2293   1.408       .  A
C2292      H2297   1.084       .  S
C2293      C2294   1.418       .  A
C2294      N2298   1.431       .  S
C2295      C2300   1.415       .  A
C2295      C2304   1.407       .  A
N2296      O2311   1.262       .  A
N2296      O2312   1.262   1_556  A
N2298      O2309   1.262       .  A
N2298      O2310   1.262       .  A
C2300      C2301   1.407       .  A
C2300      N2305   1.431       .  S
C2301      C2302   1.403       .  A
C2301      H2306   1.084       .  S
C2302      C2303   1.410       .  A
C2303      C2304   1.404       .  A
C2303      N2307   1.430       .  S
C2304      H2308   1.084       .  S
N2305      O2315   1.262       .  A
N2305      O2316   1.262   1_554  A
N2307      O2313   1.262       .  A
N2307      O2314   1.262       .  A
C2317      C2318   1.407       .  A
C2317      C2322   1.404       .  A
C2317      H2327   1.084       .  S
C2318      C2323   1.483       .  S
C2318      C2319   1.405       .  A
C2319      C2320   1.396       .  A
C2319      N2324   1.431       .  S
C2320      C2321   1.408       .  A
C2320      H2325   1.084       .  S
C2321      C2322   1.412       .  A
C2322      N2326   1.432       .  S
C2323      C2328   1.407       .  A
C2323      C2332   1.405       .  A
N2324      O2339   1.262       .  A
N2324      O2340   1.262       .  A
N2326      O2337   1.262       .  A
N2326      O2338   1.262       .  A
C2328      C2329   1.398       .  A
C2328      N2333   1.432       .  S
C2329      C2330   1.407       .  A
C2329      H2334   1.084       .  S
C2330      C2331   1.413       .  A
C2331      C2332   1.402       .  A
C2331      N2335   1.430       .  S
C2332      H2336   1.084       .  S
N2333      O2343   1.262       .  A
N2333      O2344   1.262       .  A
N2335      O2341   1.262       .  A
N2335      O2342   1.262       .  A
C2345      C2346   1.405       .  A
C2345      C2350   1.400       .  A
C2345      H2355   1.084       .  S
C2346      C2351   1.487       .  S
C2346      C2347   1.409       .  A
C2347      C2348   1.402       .  A
C2347      N2352   1.432       .  S
C2348      C2349   1.408       .  A
C2348      H2353   1.084       .  S
C2349      C2350   1.413       .  A
C2350      N2354   1.430       .  S
C2351      C2356   1.408       .  A
C2351      C2360   1.408       .  A
N2352      O2367   1.262       .  A
N2352      O2368   1.262       .  A
N2354      O2365   1.262       .  A
N2354      O2366   1.262       .  A
C2356      C2357   1.397       .  A
C2356      N2361   1.434       .  S
C2357      C2358   1.408       .  A
C2357      H2362   1.084       .  S
C2358      C2359   1.412       .  A
C2359      C2360   1.406       .  A
C2359      N2363   1.430       .  S
C2360      H2364   1.084       .  S
N2361      O2371   1.262       .  A
N2361      O2372   1.262       .  A
N2363      O2369   1.262       .  A
N2363      O2370   1.262       .  A
C2373      C2374   1.401       .  A
C2373      C2378   1.398       .  A
C2373      H2383   1.084       .  S
C2374      C2379   1.487   1_655  S
C2374      C2375   1.410       .  A
C2375      C2376   1.408       .  A
C2375      N2380   1.431       .  S
C2376      C2377   1.410       .  A
C2376      H2381   1.084       .  S
C2377      C2378   1.416       .  A
C2378      N2382   1.431       .  S
C2379      C2384   1.410       .  A
C2379      C2388   1.404       .  A
N2380      O2395   1.262       .  A
N2380      O2396   1.262       .  A
N2382      O2393   1.262       .  A
N2382      O2394   1.262       .  A
C2384      C2385   1.400       .  A
C2384      N2389   1.432       .  S
C2385      C2386   1.402       .  A
C2385      H2390   1.084       .  S
C2386      C2387   1.416       .  A
C2387      C2388   1.406       .  A
C2387      N2391   1.432       .  S
C2388      H2392   1.084       .  S
N2389      O2399   1.262       .  A
N2389      O2400   1.262   1_455  A
N2391      O2397   1.262       .  A
N2391      O2398   1.262       .  A
C2401      C2402   1.400       .  A
C2401      C2406   1.398       .  A
C2401      H2411   1.084       .  S
C2402      C2407   1.496       .  S
C2402      C2403   1.413       .  A
C2403      C2404   1.416       .  A
C2403      N2408   1.430       .  S
C2404      C2405   1.410       .  A
C2404      H2409   1.083       .  S
C2405      C2406   1.418       .  A
C2406      N2410   1.432       .  S
C2407      C2412   1.411       .  A
C2407      C2416   1.408       .  A
N2408      O2423   1.262       .  A
N2408      O2424   1.262       .  A
N2410      O2421   1.262       .  A
N2410      O2422   1.262       .  A
C2412      C2413   1.401       .  A
C2412      N2417   1.432       .  S
C2413      C2414   1.405       .  A
C2413      H2418   1.084       .  S
C2414      C2415   1.414       .  A
C2415      C2416   1.413       .  A
C2415      N2419   1.429       .  S
C2416      H2420   1.083       .  S
N2417      O2427   1.262       .  A
N2417      O2428   1.262       .  A
N2419      O2425   1.262       .  A
N2419      O2426   1.262       .  A
C2429      C2430   1.405       .  A
C2429      C2434   1.404       .  A
C2429      H2439   1.084       .  S
C2430      C2435   1.488   1_655  S
C2430      C2431   1.412       .  A
C2431      C2432   1.401       .  A
C2431      N2436   1.435       .  S
C2432      C2433   1.404       .  A
C2432      H2437   1.084       .  S
C2433      C2434   1.414       .  A
C2434      N2438   1.432       .  S
C2435      C2440   1.409       .  A
C2435      C2444   1.404       .  A
N2436      O2451   1.262       .  A
N2436      O2452   1.263   1_655  A
N2438      O2449   1.262       .  A
N2438      O2450   1.262       .  A
C2440      C2441   1.403       .  A
C2440      N2445   1.431       .  S
C2441      C2442   1.409       .  A
C2441      H2446   1.084       .  S
C2442      C2443   1.415       .  A
C2443      C2444   1.400       .  A
C2443      N2447   1.431       .  S
C2444      H2448   1.084       .  S
N2445      O2455   1.262       .  A
N2445      O2456   1.262       .  A
N2447      O2453   1.262       .  A
N2447      O2454   1.262       .  A
C2457      C2458   1.402       .  A
C2457      C2462   1.403       .  A
C2457      H2467   1.084       .  S
C2458      C2463   1.491       .  S
C2458      C2459   1.413       .  A
C2459      C2460   1.407       .  A
C2459      N2464   1.430       .  S
C2460      C2461   1.403       .  A
C2460      H2465   1.083       .  S
C2461      C2462   1.414       .  A
C2462      N2466   1.429       .  S
C2463      C2468   1.412       .  A
C2463      C2472   1.400       .  A
N2464      O2479   1.262       .  A
N2464      O2480   1.262       .  A
N2466      O2477   1.262       .  A
N2466      O2478   1.262       .  A
C2468      C2469   1.408       .  A
C2468      N2473   1.430       .  S
C2469      C2470   1.407       .  A
C2469      H2474   1.084       .  S
C2470      C2471   1.418       .  A
C2471      C2472   1.402       .  A
C2471      N2475   1.430       .  S
C2472      H2476   1.084       .  S
N2473      O2483   1.262       .  A
N2473      O2484   1.262       .  A
N2475      O2481   1.262       .  A
N2475      O2482   1.262       .  A
C2485      C2486   1.405       .  A
C2485      C2490   1.409       .  A
C2485      H2495   1.084       .  S
C2486      C2491   1.493       .  S
C2486      C2487   1.414       .  A
C2487      C2488   1.405       .  A
C2487      N2492   1.436       .  S
C2488      C2489   1.404       .  A
C2488      H2493   1.084       .  S
C2489      C2490   1.412       .  A
C2490      N2494   1.428       .  S
C2491      C2496   1.410       .  A
C2491      C2500   1.406       .  A
N2492      O2507   1.262       .  A
N2492      O2508   1.262       .  A
N2494      O2505   1.262       .  A
N2494      O2506   1.262       .  A
C2496      C2497   1.399       .  A
C2496      N2501   1.434       .  S
C2497      C2498   1.409       .  A
C2497      H2502   1.083       .  S
C2498      C2499   1.416       .  A
C2499      C2500   1.413       .  A
C2499      N2503   1.428       .  S
C2500      H2504   1.083       .  S
N2501      O2511   1.262       .  A
N2501      O2512   1.262       .  A
N2503      O2509   1.262       .  A
N2503      O2510   1.262       .  A
C2513      C2514   1.399       .  A
C2513      C2518   1.402       .  A
C2513      H2523   1.084       .  S
C2514      C2519   1.482       .  S
C2514      C2515   1.409       .  A
C2515      C2516   1.402       .  A
C2515      N2520   1.429       .  S
C2516      C2517   1.406       .  A
C2516      H2521   1.084       .  S
C2517      C2518   1.420       .  A
C2518      N2522   1.433       .  S
C2519      C2524   1.410       .  A
C2519      C2528   1.399       .  A
N2520      O2535   1.262       .  A
N2520      O2536   1.262       .  A
N2522      O2533   1.262       .  A
N2522      O2534   1.263       .  A
C2524      C2525   1.405       .  A
C2524      N2529   1.429       .  S
C2525      C2526   1.406       .  A
C2525      H2530   1.084       .  S
C2526      C2527   1.417       .  A
C2527      C2528   1.398       .  A
C2527      N2531   1.431       .  S
C2528      H2532   1.084       .  S
N2529      O2539   1.262       .  A
N2529      O2540   1.262       .  A
N2531      O2537   1.262       .  A
N2531      O2538   1.262       .  A
C2541      C2542   1.406       .  A
C2541      C2546   1.407       .  A
C2541      H2551   1.084       .  S
C2542      C2547   1.486       .  S
C2542      C2543   1.407       .  A
C2543      C2544   1.398       .  A
C2543      N2548   1.432       .  S
C2544      C2545   1.409       .  A
C2544      H2549   1.084       .  S
C2545      C2546   1.415       .  A
C2546      N2550   1.433       .  S
C2547      C2552   1.407       .  A
C2547      C2556   1.406       .  A
N2548      O2563   1.262       .  A
N2548      O2564   1.262       .  A
N2550      O2561   1.262       .  A
N2550      O2562   1.262       .  A
C2552      C2553   1.400       .  A
C2552      N2557   1.430       .  S
C2553      C2554   1.408       .  A
C2553      H2558   1.084       .  S
C2554      C2555   1.414       .  A
C2555      C2556   1.404       .  A
C2555      N2559   1.431       .  S
C2556      H2560   1.084       .  S
N2557      O2567   1.262       .  A
N2557      O2568   1.262       .  A
N2559      O2565   1.262       .  A
N2559      O2566   1.262       .  A
C2569      C2570   1.404       .  A
C2569      C2574   1.397       .  A
C2569      H2579   1.084       .  S
C2570      C2575   1.483   1_645  S
C2570      C2571   1.411   1_545  A
C2571      C2572   1.403       .  A
C2571      N2576   1.432       .  S
C2572      C2573   1.406   1_565  A
C2572      H2577   1.084       .  S
C2573      C2574   1.410       .  A
C2574      N2578   1.430       .  S
C2575      C2580   1.409       .  A
C2575      C2584   1.404       .  A
N2576      O2591   1.262       .  A
N2576      O2592   1.262       .  A
N2578      O2589   1.262       .  A
N2578      O2590   1.262       .  A
C2580      C2581   1.395       .  A
C2580      N2585   1.433       .  S
C2581      C2582   1.405       .  A
C2581      H2586   1.084       .  S
C2582      C2583   1.416       .  A
C2583      C2584   1.405       .  A
C2583      N2587   1.432       .  S
C2584      H2588   1.084   1_565  S
N2585      O2595   1.262       .  A
N2585      O2596   1.262   1_455  A
N2587      O2593   1.262       .  A
N2587      O2594   1.262   1_565  A
C2597      C2598   1.402   1_545  A
C2597      C2602   1.402       .  A
C2597      H2607   1.084       .  S
C2598      C2603   1.497       .  S
C2598      C2599   1.414       .  A
C2599      C2600   1.409       .  A
C2599      N2604   1.430       .  S
C2600      C2601   1.408   1_565  A
C2600      H2605   1.083       .  S
C2601      C2602   1.419       .  A
C2602      N2606   1.429       .  S
C2603      C2608   1.414       .  A
C2603      C2612   1.402       .  A
N2604      O2619   1.262       .  A
N2604      O2620   1.262       .  A
N2606      O2617   1.262       .  A
N2606      O2618   1.262       .  A
C2608      C2609   1.407       .  A
C2608      N2613   1.430   1_565  S
C2609      C2610   1.406       .  A
C2609      H2614   1.084   1_565  S
C2610      C2611   1.420       .  A
C2611      C2612   1.404       .  A
C2611      N2615   1.430       .  S
C2612      H2616   1.084       .  S
N2613      O2623   1.262       .  A
N2613      O2624   1.262       .  A
N2615      O2621   1.262       .  A
N2615      O2622   1.262       .  A
C2625      C2626   1.409       .  A
C2625      C2630   1.416       .  A
C2625      H2635   1.083       .  S
C2626      C2631   1.498       .  S
C2626      C2627   1.411       .  A
C2627      C2628   1.400       .  A
C2627      N2632   1.435       .  S
C2628      C2629   1.406       .  A
C2628      H2633   1.084       .  S
C2629      C2630   1.416       .  A
C2630      N2634   1.430       .  S
C2631      C2636   1.411       .  A
C2631      C2640   1.402       .  A
N2632      O2647   1.262       .  A
N2632      O2648   1.263       .  A
N2634      O2645   1.262       .  A
N2634      O2646   1.262       .  A
C2636      C2637   1.413       .  A
C2636      N2641   1.428       .  S
C2637      C2638   1.410       .  A
C2637      H2642   1.083       .  S
C2638      C2639   1.417       .  A
C2639      C2640   1.402       .  A
C2639      N2643   1.432       .  S
C2640      H2644   1.084       .  S
N2641      O2651   1.262       .  A
N2641      O2652   1.262       .  A
N2643      O2649   1.262       .  A
N2643      O2650   1.262       .  A
C2653      C2654   1.401       .  A
C2653      C2658   1.404       .  A
C2653      H2663   1.084       .  S
C2654      C2659   1.482       .  S
C2654      C2655   1.409       .  A
C2655      C2656   1.399       .  A
C2655      N2660   1.431       .  S
C2656      C2657   1.405       .  A
C2656      H2661   1.084       .  S
C2657      C2658   1.417       .  A
C2658      N2662   1.431       .  S
C2659      C2664   1.412       .  A
C2659      C2668   1.401       .  A
N2660      O2675   1.262       .  A
N2660      O2676   1.262       .  A
N2662      O2673   1.262       .  A
N2662      O2674   1.262       .  A
C2664      C2665   1.402       .  A
C2664      N2669   1.435       .  S
C2665      C2666   1.404       .  A
C2665      H2670   1.084       .  S
C2666      C2667   1.415       .  A
C2667      C2668   1.403       .  A
C2667      N2671   1.431       .  S
C2668      H2672   1.084       .  S
N2669      O2679   1.263       .  A
N2669      O2680   1.262       .  A
N2671      O2677   1.262       .  A
N2671      O2678   1.262       .  A
C2681      C2682   1.403       .  A
C2681      C2686   1.410       .  A
C2681      H2691   1.084       .  S
C2682      C2687   1.493       .  S
C2682      C2683   1.413       .  A
C2683      C2684   1.404       .  A
C2683      N2688   1.436       .  S
C2684      C2685   1.406       .  A
C2684      H2689   1.084       .  S
C2685      C2686   1.416       .  A
C2686      N2690   1.431       .  S
C2687      C2692   1.410       .  A
C2687      C2696   1.405       .  A
N2688      O2703   1.263       .  A
N2688      O2704   1.263       .  A
N2690      O2701   1.262       .  A
N2690      O2702   1.262       .  A
C2692      C2693   1.399       .  A
C2692      N2697   1.436       .  S
C2693      C2694   1.410       .  A
C2693      H2698   1.083       .  S
C2694      C2695   1.420       .  A
C2695      C2696   1.414       .  A
C2695      N2699   1.434       .  S
C2696      H2700   1.083       .  S
N2697      O2707   1.263       .  A
N2697      O2708   1.262       .  A
N2699      O2705   1.262       .  A
N2699      O2706   1.262       .  A
C2709      C2710   1.405       .  A
C2709      C2714   1.405       .  A
C2709      H2719   1.084       .  S
C2710      C2715   1.484       .  S
C2710      C2711   1.406       .  A
C2711      C2712   1.401       .  A
C2711      N2716   1.428       .  S
C2712      C2713   1.406       .  A
C2712      H2717   1.084       .  S
C2713      C2714   1.413       .  A
C2714      N2718   1.431       .  S
C2715      C2720   1.403       .  A
C2715      C2724   1.406       .  A
N2716      O2731   1.262       .  A
N2716      O2732   1.262       .  A
N2718      O2729   1.262       .  A
N2718      O2730   1.262       .  A
C2720      C2721   1.396       .  A
C2720      N2725   1.429       .  S
C2721      C2722   1.410       .  A
C2721      H2726   1.084       .  S
C2722      C2723   1.414       .  A
C2723      C2724   1.410       .  A
C2723      N2727   1.431       .  S
C2724      H2728   1.084       .  S
N2725      O2735   1.262       .  A
N2725      O2736   1.262       .  A
N2727      O2733   1.262       .  A
N2727      O2734   1.262       .  A
C2737      C2738   1.400       .  A
C2737      C2742   1.402       .  A
C2737      H2747   1.084       .  S
C2738      C2743   1.474       .  S
C2738      C2739   1.406       .  A
C2739      C2740   1.399       .  A
C2739      N2744   1.429       .  S
C2740      C2741   1.403       .  A
C2740      H2745   1.084       .  S
C2741      C2742   1.413       .  A
C2742      N2746   1.435       .  S
C2743      C2748   1.408       .  A
C2743      C2752   1.396       .  A
N2744      O2759   1.262       .  A
N2744      O2760   1.262       .  A
N2746      O2757   1.262       .  A
N2746      O2758   1.262       .  A
C2748      C2749   1.402   1_545  A
C2748      N2753   1.429       .  S
C2749      C2750   1.406       .  A
C2749      H2754   1.084       .  S
C2750      C2751   1.418       .  A
C2751      C2752   1.396   1_565  A
C2751      N2755   1.430       .  S
C2752      H2756   1.084       .  S
N2753      O2763   1.262       .  A
N2753      O2764   1.262       .  A
N2755      O2761   1.262       .  A
N2755      O2762   1.262       .  A
C2765      C2766   1.403       .  A
C2765      C2770   1.406       .  A
C2765      H2775   1.084       .  S
C2766      C2771   1.488       .  S
C2766      C2767   1.408       .  A
C2767      C2768   1.398       .  A
C2767      N2772   1.431       .  S
C2768      C2769   1.411       .  A
C2768      H2773   1.083       .  S
C2769      C2770   1.417       .  A
C2770      N2774   1.428       .  S
C2771      C2776   1.412       .  A
C2771      C2780   1.402       .  A
N2772      O2787   1.262       .  A
N2772      O2788   1.262       .  A
N2774      O2785   1.261       .  A
N2774      O2786   1.262       .  A
C2776      C2777   1.406       .  A
C2776      N2781   1.432       .  S
C2777      C2778   1.406       .  A
C2777      H2782   1.084       .  S
C2778      C2779   1.415       .  A
C2779      C2780   1.398       .  A
C2779      N2783   1.431       .  S
C2780      H2784   1.084       .  S
N2781      O2791   1.262       .  A
N2781      O2792   1.262       .  A
N2783      O2789   1.262       .  A
N2783      O2790   1.262       .  A
C2793      C2794   1.407       .  A
C2793      C2798   1.415       .  A
C2793      H2803   1.083       .  S
C2794      C2799   1.499   1_556  S
C2794      C2795   1.411       .  A
C2795      C2796   1.398       .  A
C2795      N2800   1.434       .  S
C2796      C2797   1.410       .  A
C2796      H2801   1.083       .  S
C2797      C2798   1.422       .  A
C2798      N2802   1.435       .  S
C2799      C2804   1.415       .  A
C2799      C2808   1.406       .  A
N2800      O2815   1.262       .  A
N2800      O2816   1.262   1_556  A
N2802      O2813   1.262       .  A
N2802      O2814   1.262       .  A
C2804      C2805   1.409       .  A
C2804      N2809   1.430       .  S
C2805      C2806   1.405       .  A
C2805      H2810   1.084       .  S
C2806      C2807   1.411       .  A
C2807      C2808   1.402       .  A
C2807      N2811   1.431       .  S
C2808      H2812   1.084       .  S
N2809      O2819   1.262       .  A
N2809      O2820   1.262       .  A
N2811      O2817   1.262       .  A
N2811      O2818   1.262       .  A
C2821      C2822   1.399       .  A
C2821      C2826   1.397       .  A
C2821      H2831   1.084       .  S
C2822      C2827   1.474       .  S
C2822      C2823   1.405       .  A
C2823      C2824   1.402       .  A
C2823      N2828   1.428       .  S
C2824      C2825   1.407       .  A
C2824      H2829   1.084       .  S
C2825      C2826   1.415       .  A
C2826      N2830   1.431       .  S
C2827      C2832   1.405       .  A
C2827      C2836   1.401       .  A
N2828      O2843   1.262       .  A
N2828      O2844   1.262       .  A
N2830      O2841   1.262       .  A
N2830      O2842   1.262       .  A
C2832      C2833   1.396       .  A
C2832      N2837   1.431       .  S
C2833      C2834   1.406       .  A
C2833      H2838   1.084       .  S
C2834      C2835   1.415       .  A
C2835      C2836   1.404       .  A
C2835      N2839   1.432       .  S
C2836      H2840   1.084       .  S
N2837      O2847   1.262       .  A
N2837      O2848   1.262       .  A
N2839      O2845   1.262       .  A
N2839      O2846   1.262       .  A
C2849      C2850   1.403       .  A
C2849      C2854   1.405       .  A
C2849      H2859   1.084       .  S
C2850      C2855   1.504       .  S
C2850      C2851   1.417       .  A
C2851      C2852   1.410       .  A
C2851      N2856   1.432       .  S
C2852      C2853   1.408       .  A
C2852      H2857   1.083       .  S
C2853      C2854   1.420       .  A
C2854      N2858   1.429       .  S
C2855      C2860   1.418       .  A
C2855      C2864   1.403       .  A
N2856      O2871   1.262       .  A
N2856      O2872   1.262       .  A
N2858      O2869   1.262       .  A
N2858      O2870   1.262       .  A
C2860      C2861   1.413       .  A
C2860      N2865   1.431       .  S
C2861      C2862   1.405       .  A
C2861      H2866   1.083       .  S
C2862      C2863   1.419       .  A
C2863      C2864   1.403       .  A
C2863      N2867   1.432       .  S
C2864      H2868   1.084       .  S
N2865      O2875   1.262       .  A
N2865      O2876   1.262       .  A
N2867      O2873   1.262       .  A
N2867      O2874   1.262       .  A
C2877      C2878   1.403       .  A
C2877      C2882   1.400       .  A
C2877      H2887   1.084       .  S
C2878      C2883   1.502   1_556  S
C2878      C2879   1.414       .  A
C2879      C2880   1.415       .  A
C2879      N2884   1.432       .  S
C2880      C2881   1.411       .  A
C2880      H2885   1.083       .  S
C2881      C2882   1.419       .  A
C2882      N2886   1.430       .  S
C2883      C2888   1.414       .  A
C2883      C2892   1.409       .  A
N2884      O2899   1.262       .  A
N2884      O2900   1.262       .  A
N2886      O2897   1.262       .  A
N2886      O2898   1.262       .  A
C2888      C2889   1.403       .  A
C2888      N2893   1.433       .  S
C2889      C2890   1.404       .  A
C2889      H2894   1.084       .  S
C2890      C2891   1.412       .  A
C2891      C2892   1.412       .  A
C2891      N2895   1.429       .  S
C2892      H2896   1.083       .  S
N2893      O2903   1.262       .  A
N2893      O2904   1.262       .  A
N2895      O2901   1.262       .  A
N2895      O2902   1.262       .  A
C2905      C2906   1.400       .  A
C2905      C2910   1.399   1_565  A
C2905      H2915   1.084       .  S
C2906      C2911   1.484       .  S
C2906      C2907   1.411       .  A
C2907      C2908   1.403   1_565  A
C2907      N2912   1.430       .  S
C2908      C2909   1.405       .  A
C2908      H2913   1.084       .  S
C2909      C2910   1.416       .  A
C2910      N2914   1.433       .  S
C2911      C2916   1.411       .  A
C2911      C2920   1.401       .  A
N2912      O2927   1.262       .  A
N2912      O2928   1.262       .  A
N2914      O2925   1.262       .  A
N2914      O2926   1.262       .  A
C2916      C2917   1.402       .  A
C2916      N2921   1.429       .  S
C2917      C2918   1.403       .  A
C2917      H2922   1.084       .  S
C2918      C2919   1.417       .  A
C2919      C2920   1.399       .  A
C2919      N2923   1.433       .  S
C2920      H2924   1.084       .  S
N2921      O2931   1.262       .  A
N2921      O2932   1.262       .  A
N2923      O2929   1.262       .  A
N2923      O2930   1.262       .  A
C2933      C2934   1.405       .  A
C2933      C2938   1.400       .  A
C2933      H2943   1.084       .  S
C2934      C2939   1.489       .  S
C2934      C2935   1.411       .  A
C2935      C2936   1.403       .  A
C2935      N2940   1.434       .  S
C2936      C2937   1.407       .  A
C2936      H2941   1.084       .  S
C2937      C2938   1.411       .  A
C2938      N2942   1.430       .  S
C2939      C2944   1.409       .  A
C2939      C2948   1.408       .  A
N2940      O2955   1.262       .  A
N2940      O2956   1.263       .  A
N2942      O2953   1.262       .  A
N2942      O2954   1.262       .  A
C2944      C2945   1.396       .  A
C2944      N2949   1.434       .  S
C2945      C2946   1.409       .  A
C2945      H2950   1.084       .  S
C2946      C2947   1.413       .  A
C2947      C2948   1.406       .  A
C2947      N2951   1.432       .  S
C2948      H2952   1.084       .  S
N2949      O2959   1.262       .  A
N2949      O2960   1.262       .  A
N2951      O2957   1.262       .  A
N2951      O2958   1.262       .  A
C2961      C2962   1.402       .  A
C2961      C2966   1.396       .  A
C2961      H2971   1.084       .  S
C2962      C2967   1.486       .  S
C2962      C2963   1.413       .  A
C2963      C2964   1.407       .  A
C2963      N2968   1.433       .  S
C2964      C2965   1.409       .  A
C2964      H2969   1.084       .  S
C2965      C2966   1.414       .  A
C2966      N2970   1.431       .  S
C2967      C2972   1.416       .  A
C2967      C2976   1.402       .  A
N2968      O2983   1.262       .  A
N2968      O2984   1.262       .  A
N2970      O2981   1.262       .  A
N2970      O2982   1.262       .  A
C2972      C2973   1.409       .  A
C2972      N2977   1.436       .  S
C2973      C2974   1.406       .  A
C2973      H2978   1.084       .  S
C2974      C2975   1.409       .  A
C2975      C2976   1.395       .  A
C2975      N2979   1.429       .  S
C2976      H2980   1.084       .  S
N2977      O2987   1.262       .  A
N2977      O2988   1.262       .  A
N2979      O2985   1.262       .  A
N2979      O2986   1.262       .  A
C2989      C2990   1.405       .  A
C2989      C2994   1.410       .  A
C2989      H2999   1.084       .  S
C2990      C2995   1.495       .  S
C2990      C2991   1.407       .  A
C2991      C2992   1.405       .  A
C2991      N2996   1.430       .  S
C2992      C2993   1.413       .  A
C2992      H2997   1.083       .  S
C2993      C2994   1.417       .  A
C2994      N2998   1.429       .  S
C2995      C3000   1.406       .  A
C2995      C3004   1.408       .  A
N2996      O3011   1.262       .  A
N2996      O3012   1.262       .  A
N2998      O3009   1.262       .  A
N2998      O3010   1.262       .  A
C3000      C3001   1.402       .  A
C3000      N3005   1.429       .  S
C3001      C3002   1.410       .  A
C3001      H3006   1.084       .  S
C3002      C3003   1.414       .  A
C3003      C3004   1.412       .  A
C3003      N3007   1.428       .  S
C3004      H3008   1.084       .  S
N3005      O3015   1.262       .  A
N3005      O3016   1.262       .  A
N3007      O3013   1.262       .  A
N3007      O3014   1.262       .  A
C3017      C3018   1.405       .  A
C3017      C3022   1.406       .  A
C3017      H3027   1.084       .  S
C3018      C3023   1.493       .  S
C3018      C3019   1.412       .  A
C3019      C3020   1.407       .  A
C3019      N3024   1.431       .  S
C3020      C3021   1.405       .  A
C3020      H3025   1.084       .  S
C3021      C3022   1.413       .  A
C3022      N3026   1.429       .  S
C3023      C3028   1.414       .  A
C3023      C3032   1.403       .  A
N3024      O3039   1.262       .  A
N3024      O3040   1.262       .  A
N3026      O3037   1.262       .  A
N3026      O3038   1.262       .  A
C3028      C3029   1.411       .  A
C3028      N3033   1.431       .  S
C3029      C3030   1.404       .  A
C3029      H3034   1.084       .  S
C3030      C3031   1.411       .  A
C3031      C3032   1.401       .  A
C3031      N3035   1.429       .  S
C3032      H3036   1.084       .  S
N3033      O3043   1.262       .  A
N3033      O3044   1.262       .  A
N3035      O3041   1.262       .  A
N3035      O3042   1.262       .  A
C3045      C3046   1.404       .  A
C3045      C3050   1.400       .  A
C3045      H3055   1.084       .  S
C3046      C3051   1.489       .  S
C3046      C3047   1.415       .  A
C3047      C3048   1.407       .  A
C3047      N3052   1.436       .  S
C3048      C3049   1.405       .  A
C3048      H3053   1.084       .  S
C3049      C3050   1.409       .  A
C3050      N3054   1.432       .  S
C3051      C3056   1.415       .  A
C3051      C3060   1.402       .  A
N3052      O3067   1.263       .  A
N3052      O3068   1.262       .  A
N3054      O3065   1.262       .  A
N3054      O3066   1.262       .  A
C3056      C3057   1.407       .  A
C3056      N3061   1.436       .  S
C3057      C3058   1.409       .  A
C3057      H3062   1.083       .  S
C3058      C3059   1.416       .  A
C3059      C3060   1.398       .  A
C3059      N3063   1.430       .  S
C3060      H3064   1.084       .  S
N3061      O3071   1.262       .  A
N3061      O3072   1.263       .  A
N3063      O3069   1.262       .  A
N3063      O3070   1.262       .  A
C3073      C3074   1.403       .  A
C3073      C3078   1.407       .  A
C3073      H3083   1.084       .  S
C3074      C3079   1.485       .  S
C3074      C3075   1.408       .  A
C3075      C3076   1.400       .  A
C3075      N3080   1.432       .  S
C3076      C3077   1.410       .  A
C3076      H3081   1.084       .  S
C3077      C3078   1.416       .  A
C3078      N3082   1.428       .  S
C3079      C3084   1.407       .  A
C3079      C3088   1.404       .  A
N3080      O3095   1.262       .  A
N3080      O3096   1.262       .  A
N3082      O3093   1.262       .  A
N3082      O3094   1.262       .  A
C3084      C3085   1.398       .  A
C3084      N3089   1.431       .  S
C3085      C3086   1.408       .  A
C3085      H3090   1.084       .  S
C3086      C3087   1.416       .  A
C3087      C3088   1.409       .  A
C3087      N3091   1.431       .  S
C3088      H3092   1.084       .  S
N3089      O3099   1.262       .  A
N3089      O3100   1.262       .  A
N3091      O3097   1.262       .  A
N3091      O3098   1.262       .  A
C3101      C3102   1.400       .  A
C3101      C3106   1.398       .  A
C3101      H3111   1.084       .  S
C3102      C3107   1.494       .  S
C3102      C3103   1.410       .  A
C3103      C3104   1.412       .  A
C3103      N3108   1.428       .  S
C3104      C3105   1.411       .  A
C3104      H3109   1.083       .  S
C3105      C3106   1.420       .  A
C3106      N3110   1.431       .  S
C3107      C3112   1.411       .  A
C3107      C3116   1.407       .  A
N3108      O3123   1.262       .  A
N3108      O3124   1.262       .  A
N3110      O3121   1.262       .  A
N3110      O3122   1.262       .  A
C3112      C3113   1.401       .  A
C3112      N3117   1.431       .  S
C3113      C3114   1.402       .  A
C3113      H3118   1.084       .  S
C3114      C3115   1.413       .  A
C3115      C3116   1.410       .  A
C3115      N3119   1.431       .  S
C3116      H3120   1.084       .  S
N3117      O3127   1.262       .  A
N3117      O3128   1.262       .  A
N3119      O3125   1.262       .  A
N3119      O3126   1.262       .  A
C3129      C3130   1.403       .  A
C3129      C3134   1.402       .  A
C3129      H3139   1.084       .  S
C3130      C3135   1.487       .  S
C3130      C3131   1.416       .  A
C3131      C3132   1.406       .  A
C3131      N3136   1.436       .  S
C3132      C3133   1.403       .  A
C3132      H3137   1.084       .  S
C3133      C3134   1.410       .  A
C3134      N3138   1.433       .  S
C3135      C3140   1.411       .  A
C3135      C3144   1.406       .  A
N3136      O3151   1.263       .  A
N3136      O3152   1.263       .  A
N3138      O3149   1.262       .  A
N3138      O3150   1.263       .  A
C3140      C3141   1.400   1_565  A
C3140      N3145   1.436       .  S
C3141      C3142   1.409       .  A
C3141      H3146   1.084       .  S
C3142      C3143   1.413   1_545  A
C3143      C3144   1.405       .  A
C3143      N3147   1.430   1_565  S
C3144      H3148   1.084       .  S
N3145      O3155   1.262       .  A
N3145      O3156   1.263       .  A
N3147      O3153   1.262       .  A
N3147      O3154   1.262       .  A
C3157      C3158   1.399       .  A
C3157      C3162   1.398       .  A
C3157      H3167   1.084       .  S
C3158      C3163   1.486       .  S
C3158      C3159   1.417       .  A
C3159      C3160   1.408       .  A
C3159      N3164   1.437       .  S
C3160      C3161   1.405       .  A
C3160      H3165   1.083       .  S
C3161      C3162   1.416       .  A
C3162      N3166   1.430       .  S
C3163      C3168   1.409       .  A
C3163      C3172   1.403       .  A
N3164      O3179   1.263       .  A
N3164      O3180   1.263       .  A
N3166      O3177   1.262       .  A
N3166      O3178   1.262       .  A
C3168      C3169   1.401       .  A
C3168      N3173   1.436       .  S
C3169      C3170   1.412       .  A
C3169      H3174   1.083       .  S
C3170      C3171   1.415       .  A
C3171      C3172   1.403       .  A
C3171      N3175   1.428       .  S
C3172      H3176   1.084       .  S
N3173      O3183   1.262       .  A
N3173      O3184   1.263       .  A
N3175      O3181   1.262       .  A
N3175      O3182   1.262       .  A
C3185      C3186   1.403       .  A
C3185      C3190   1.396       .  A
C3185      H3195   1.084       .  S
C3186      C3191   1.483       .  S
C3186      C3187   1.414       .  A
C3187      C3188   1.406       .  A
C3187      N3192   1.435       .  S
C3188      C3189   1.406       .  A
C3188      H3193   1.084       .  S
C3189      C3190   1.408       .  A
C3190      N3194   1.430       .  S
C3191      C3196   1.413       .  A
C3191      C3200   1.401       .  A
N3192      O3207   1.262       .  A
N3192      O3208   1.262       .  A
N3194      O3205   1.262       .  A
N3194      O3206   1.262       .  A
C3196      C3197   1.405       .  A
C3196      N3201   1.434       .  S
C3197      C3198   1.409       .  A
C3197      H3202   1.083       .  S
C3198      C3199   1.415       .  A
C3199      C3200   1.395       .  A
C3199      N3203   1.431       .  S
C3200      H3204   1.084       .  S
N3201      O3211   1.262       .  A
N3201      O3212   1.262       .  A
N3203      O3209   1.262       .  A
N3203      O3210   1.262       .  A
C3213      C3214   1.401       .  A
C3213      C3218   1.398       .  A
C3213      H3223   1.084       .  S
C3214      C3219   1.484       .  S
C3214      C3215   1.412       .  A
C3215      C3216   1.405       .  A
C3215      N3220   1.434       .  S
C3216      C3217   1.408       .  A
C3216      H3221   1.084       .  S
C3217      C3218   1.416       .  A
C3218      N3222   1.431       .  S
C3219      C3224   1.416       .  A
C3219      C3228   1.403       .  A
N3220      O3235   1.262       .  A
N3220      O3236   1.262       .  A
N3222      O3233   1.262       .  A
N3222      O3234   1.262       .  A
C3224      C3225   1.407       .  A
C3224      N3229   1.436       .  S
C3225      C3226   1.402       .  A
C3225      H3230   1.084       .  S
C3226      C3227   1.407       .  A
C3227      C3228   1.396       .  A
C3227      N3231   1.430       .  S
C3228      H3232   1.084       .  S
N3229      O3239   1.262       .  A
N3229      O3240   1.262       .  A
N3231      O3237   1.262       .  A
N3231      O3238   1.262       .  A
C3241      C3242   1.400       .  A
C3241      C3246   1.398       .  A
C3241      H3251   1.084       .  S
C3242      C3247   1.498   1_556  S
C3242      C3243   1.414       .  A
C3243      C3244   1.414       .  A
C3243      N3248   1.432       .  S
C3244      C3245   1.411       .  A
C3244      H3249   1.083       .  S
C3245      C3246   1.423       .  A
C3246      N3250   1.433       .  S
C3247      C3252   1.415       .  A
C3247      C3256   1.407       .  A
N3248      O3263   1.262       .  A
N3248      O3264   1.262       .  A
N3250      O3261   1.262       .  A
N3250      O3262   1.262       .  A
C3252      C3253   1.403       .  A
C3252      N3257   1.434       .  S
C3253      C3254   1.401       .  A
C3253      H3258   1.084       .  S
C3254      C3255   1.414       .  A
C3255      C3256   1.410       .  A
C3255      N3259   1.433       .  S
C3256      H3260   1.084       .  S
N3257      O3267   1.262       .  A
N3257      O3268   1.262       .  A
N3259      O3265   1.263       .  A
N3259      O3266   1.262       .  A
C3269      C3270   1.405       .  A
C3269      C3274   1.406       .  A
C3269      H3279   1.084       .  S
C3270      C3275   1.480       .  S
C3270      C3271   1.407       .  A
C3271      C3272   1.394       .  A
C3271      N3276   1.433       .  S
C3272      C3273   1.404       .  A
C3272      H3277   1.084       .  S
C3273      C3274   1.414       .  A
C3274      N3278   1.430       .  S
C3275      C3280   1.406       .  A
C3275      C3284   1.400       .  A
N3276      O3291   1.262       .  A
N3276      O3292   1.262       .  A
N3278      O3289   1.262       .  A
N3278      O3290   1.262       .  A
C3280      C3281   1.403       .  A
C3280      N3285   1.429       .  S
C3281      C3282   1.410       .  A
C3281      H3286   1.083       .  S
C3282      C3283   1.417       .  A
C3283      C3284   1.395       .  A
C3283      N3287   1.431       .  S
C3284      H3288   1.084       .  S
N3285      O3295   1.262       .  A
N3285      O3296   1.262       .  A
N3287      O3293   1.262       .  A
N3287      O3294   1.262       .  A
C3297      C3298   1.403       .  A
C3297      C3302   1.396       .  A
C3297      H3307   1.084       .  S
C3298      C3303   1.485       .  S
C3298      C3299   1.411       .  A
C3299      C3300   1.404       .  A
C3299      N3304   1.431       .  S
C3300      C3301   1.406       .  A
C3300      H3305   1.084       .  S
C3301      C3302   1.412       .  A
C3302      N3306   1.435       .  S
C3303      C3308   1.411       .  A
C3303      C3312   1.405       .  A
N3304      O3319   1.262       .  A
N3304      O3320   1.262       .  A
N3306      O3317   1.262       .  A
N3306      O3318   1.262       .  A
C3308      C3309   1.396       .  A
C3308      N3313   1.433       .  S
C3309      C3310   1.403       .  A
C3309      H3314   1.084       .  S
C3310      C3311   1.413       .  A
C3311      C3312   1.404       .  A
C3311      N3315   1.430       .  S
C3312      H3316   1.084       .  S
N3313      O3323   1.262       .  A
N3313      O3324   1.262       .  A
N3315      O3321   1.262       .  A
N3315      O3322   1.262       .  A
C3325      C3326   1.400       .  A
C3325      C3330   1.404       .  A
C3325      H3335   1.084       .  S
C3326      C3331   1.489       .  S
C3326      C3327   1.411       .  A
C3327      C3328   1.408       .  A
C3327      N3332   1.432       .  S
C3328      C3329   1.409       .  A
C3328      H3333   1.084       .  S
C3329      C3330   1.421       .  A
C3330      N3334   1.431       .  S
C3331      C3336   1.410       .  A
C3331      C3340   1.399       .  A
N3332      O3347   1.262       .  A
N3332      O3348   1.262       .  A
N3334      O3345   1.262       .  A
N3334      O3346   1.262       .  A
C3336      C3337   1.409       .  A
C3336      N3341   1.428       .  S
C3337      C3338   1.409       .  A
C3337      H3342   1.083       .  S
C3338      C3339   1.421       .  A
C3339      C3340   1.402       .  A
C3339      N3343   1.429       .  S
C3340      H3344   1.084       .  S
N3341      O3351   1.262       .  A
N3341      O3352   1.262       .  A
N3343      O3349   1.262       .  A
N3343      O3350   1.262       .  A
C3353      C3354   1.401       .  A
C3353      C3358   1.398       .  A
C3353      H3363   1.084       .  S
C3354      C3359   1.493   1_556  S
C3354      C3355   1.413       .  A
C3355      C3356   1.414       .  A
C3355      N3360   1.430       .  S
C3356      C3357   1.408       .  A
C3356      H3361   1.083       .  S
C3357      C3358   1.416       .  A
C3358      N3362   1.432       .  S
C3359      C3364   1.410       .  A
C3359      C3368   1.407       .  A
N3360      O3375   1.262       .  A
N3360      O3376   1.262       .  A
N3362      O3373   1.262       .  A
N3362      O3374   1.262       .  A
C3364      C3365   1.400       .  A
C3364      N3369   1.430       .  S
C3365      C3366   1.404       .  A
C3365      H3370   1.084       .  S
C3366      C3367   1.416       .  A
C3367      C3368   1.412       .  A
C3367      N3371   1.430       .  S
C3368      H3372   1.084       .  S
N3369      O3379   1.262       .  A
N3369      O3380   1.262   1_554  A
N3371      O3377   1.262       .  A
N3371      O3378   1.262       .  A
C3381      C3382   1.403       .  A
C3381      C3386   1.402       .  A
C3381      H3391   1.084       .  S
C3382      C3387   1.481       .  S
C3382      C3383   1.409       .  A
C3383      C3384   1.401       .  A
C3383      N3388   1.434       .  S
C3384      C3385   1.407       .  A
C3384      H3389   1.084       .  S
C3385      C3386   1.413       .  A
C3386      N3390   1.429       .  S
C3387      C3392   1.413       .  A
C3387      C3396   1.398       .  A
N3388      O3403   1.262       .  A
N3388      O3404   1.262       .  A
N3390      O3401   1.262       .  A
N3390      O3402   1.262       .  A
C3392      C3393   1.405       .  A
C3392      N3397   1.435       .  S
C3393      C3394   1.406       .  A
C3393      H3398   1.083       .  S
C3394      C3395   1.418       .  A
C3395      C3396   1.399       .  A
C3395      N3399   1.431       .  S
C3396      H3400   1.084       .  S
N3397      O3407   1.262       .  A
N3397      O3408   1.262       .  A
N3399      O3405   1.262       .  A
N3399      O3406   1.262       .  A
C3409      C3410   1.408       .  A
C3409      C3414   1.403   1_545  A
C3409      H3419   1.084       .  S
C3410      C3415   1.490       .  S
C3410      C3411   1.409       .  A
C3411      C3412   1.398   1_545  A
C3411      N3416   1.433       .  S
C3412      C3413   1.407       .  A
C3412      H3417   1.084       .  S
C3413      C3414   1.412       .  A
C3414      N3418   1.432       .  S
C3415      C3420   1.410       .  A
C3415      C3424   1.410       .  A
N3416      O3431   1.262       .  A
N3416      O3432   1.262       .  A
N3418      O3429   1.262       .  A
N3418      O3430   1.262       .  A
C3420      C3421   1.397       .  A
C3420      N3425   1.434       .  S
C3421      C3422   1.406       .  A
C3421      H3426   1.084       .  S
C3422      C3423   1.410       .  A
C3423      C3424   1.405       .  A
C3423      N3427   1.430       .  S
C3424      H3428   1.083       .  S
N3425      O3435   1.262       .  A
N3425      O3436   1.262       .  A
N3427      O3433   1.262       .  A
N3427      O3434   1.262       .  A
C3437      C3438   1.402       .  A
C3437      C3442   1.396       .  A
C3437      H3447   1.084       .  S
C3438      C3443   1.485       .  S
C3438      C3439   1.413       .  A
C3439      C3440   1.405       .  A
C3439      N3444   1.433       .  S
C3440      C3441   1.408       .  A
C3440      H3445   1.084       .  S
C3441      C3442   1.413       .  A
C3442      N3446   1.430       .  S
C3443      C3448   1.416       .  A
C3443      C3452   1.401       .  A
N3444      O3459   1.262       .  A
N3444      O3460   1.262       .  A
N3446      O3457   1.262       .  A
N3446      O3458   1.262       .  A
C3448      C3449   1.408       .  A
C3448      N3453   1.437       .  S
C3449      C3450   1.407       .  A
C3449      H3454   1.083       .  S
C3450      C3451   1.411       .  A
C3451      C3452   1.393       .  A
C3451      N3455   1.428       .  S
C3452      H3456   1.084       .  S
N3453      O3463   1.262       .  A
N3453      O3464   1.263       .  A
N3455      O3461   1.262       .  A
N3455      O3462   1.261       .  A
C3465      C3466   1.403       .  A
C3465      C3470   1.408       .  A
C3465      H3475   1.084       .  S
C3466      C3471   1.482       .  S
C3466      C3467   1.406       .  A
C3467      C3468   1.396       .  A
C3467      N3472   1.430       .  S
C3468      C3469   1.409       .  A
C3468      H3473   1.083       .  S
C3469      C3470   1.418       .  A
C3470      N3474   1.428       .  S
C3471      C3476   1.408       .  A
C3471      C3480   1.404       .  A
N3472      O3487   1.262       .  A
N3472      O3488   1.262       .  A
N3474      O3485   1.262       .  A
N3474      O3486   1.262       .  A
C3476      C3477   1.399       .  A
C3476      N3481   1.433       .  S
C3477      C3478   1.405       .  A
C3477      H3482   1.084       .  S
C3478      C3479   1.412       .  A
C3479      C3480   1.406       .  A
C3479      N3483   1.429       .  S
C3480      H3484   1.084       .  S
N3481      O3491   1.262       .  A
N3481      O3492   1.262       .  A
N3483      O3489   1.261       .  A
N3483      O3490   1.262       .  A
C3493      C3494   1.399       .  A
C3493      C3498   1.401       .  A
C3493      H3503   1.084       .  S
C3494      C3499   1.493       .  S
C3494      C3495   1.413       .  A
C3495      C3496   1.410       .  A
C3495      N3500   1.430       .  S
C3496      C3497   1.409       .  A
C3496      H3501   1.083       .  S
C3497      C3498   1.421       .  A
C3498      N3502   1.430       .  S
C3499      C3504   1.414       .  A
C3499      C3508   1.402       .  A
N3500      O3515   1.262       .  A
N3500      O3516   1.262       .  A
N3502      O3513   1.262       .  A
N3502      O3514   1.262       .  A
C3504      C3505   1.407       .  A
C3504      N3509   1.430       .  S
C3505      C3506   1.403       .  A
C3505      H3510   1.081       .  S
C3506      C3507   1.416       .  A
C3507      C3508   1.403       .  A
C3507      N3511   1.430       .  S
C3508      H3512   1.084       .  S
N3509      O3519   1.262       .  A
N3509      O3520   1.262       .  A
N3511      O3517   1.262       .  A
N3511      O3518   1.262       .  A
