geometry optimzed in LAMMPS
_audit_creation_date              2020-12-01 
_audit_creation_method            'lammps2cif' 
_symmetry_space_group_name_H-M    'P1' 
_symmetry_Int_Tables_number       1 
_symmetry_cell_setting            triclinic 
loop_ 
_symmetry_equiv_pos_as_xyz 
  x,y,z 
_cell_length_a                    32.45171281 
_cell_length_b                    30.165930645649507 
_cell_length_c                    70.01173919462738 
_cell_angle_alpha                 90.23115427277723 
_cell_angle_beta                  89.76005979890671 
_cell_angle_gamma                 90.02200937222474 
loop_ 
_atom_site_label 
_atom_site_type_symbol 
_atom_site_fract_x 
_atom_site_fract_y 
_atom_site_fract_z 
_atom_site_charge 
O1          O  0.74409039  0.46807078  0.14767504    -0.71200
O2          O  0.73157159  0.43789335  0.20321713    -0.72200
O3          O  0.68588372  0.98795003  0.17916645    -0.60800
O4          O  0.79371919  0.42451844  0.17525524    -0.69200
O5          O  0.82662477  0.99693064  0.18188889    -0.68800
O6          O  0.71424720  0.05438154  0.18284219    -0.60000
O7          O  0.76850591  0.01973642  0.21086389    -0.72500
O8          O  0.77240199  0.03313750  0.15416808    -0.71300
Cu9        Cu  0.73691260  0.45073114  0.17521595     1.04600
Cu10       Cu  0.77155282  0.02830458  0.18257043     1.04300
C11         C  0.75861972  0.00257701  0.14326247     0.95000
C12         C  0.74388058  0.46529796  0.21590649     0.94100
C13         C  0.68232184  0.02990546  0.18101412     0.86300
C14         C  0.82557603  0.44801165  0.17881134     0.92500
O15         O  0.71450079  0.40527144  0.33173724    -0.71200
O16         O  0.72618457  0.43408387  0.27580770    -0.72200
O17         O  0.77558598  0.39087501  0.30356375    -0.60800
O18         O  0.66412959  0.44825354  0.30422131    -0.69200
O19         O  0.68741091  0.99976243  0.30857037    -0.68800
O20         O  0.80415313  0.45544960  0.31114761    -0.60000
O21         O  0.74580288  0.97622317  0.27993497    -0.72500
O22         O  0.74170653  0.47071509  0.33902206    -0.71300
Cu23       Cu  0.71900585  0.41739120  0.30354232     1.04600
Cu24       Cu  0.74942424  0.48668518  0.31142652     1.04300
C25         C  0.72660800  0.43352944  0.34417127     0.95000
C26         C  0.74297172  0.47067718  0.27081218     0.94100
C27         C  0.80741307  0.41407264  0.30736921     0.86300
C28         C  0.65500823  0.97595788  0.30730825     0.92500
O29         O  0.99639875  0.34363925  0.14884105    -0.71200
O30         O  0.00618994  0.37140709  0.20459222    -0.72200
O31         O  0.05687761  0.32822972  0.17719454    -0.60800
O32         O  0.94562483  0.38635181  0.17636668    -0.69200
O33         O  0.91641291  0.32142654  0.18262368    -0.68800
O34         O  0.02772669  0.26378057  0.18437375    -0.60000
O35         O  0.97638717  0.30723388  0.21163719    -0.72500
O36         O  0.96886244  0.27811006  0.15561436    -0.71300
Cu37       Cu  0.00225842  0.35964837  0.17650930     1.04600
Cu38       Cu  0.97121565  0.29041693  0.18383615     1.04300
C39         C  0.98193621  0.30631781  0.14343180     0.95000
C40         C  0.99291576  0.34378506  0.21691778     0.94100
C41         C  0.05981295  0.28683188  0.18084175     0.86300
C42         C  0.91342320  0.36290909  0.17931189     0.92500
O43         O  0.00659837  0.37489999  0.27683163    -0.71200
O44         O  0.01594388  0.40456390  0.33271496    -0.72200
O45         O  0.06776818  0.36205580  0.30530766    -0.60800
O46         O  0.95573286  0.41763737  0.30437035    -0.69200
O47         O  0.92746151  0.35284471  0.31174595    -0.68800
O48         O  0.03974856  0.29666668  0.31184527    -0.60000
O49         O  0.98936656  0.33875739  0.33978292    -0.72500
O50         O  0.97785431  0.31030930  0.28410227    -0.71300
Cu51       Cu  0.01256928  0.39201774  0.30453861     1.04600
Cu52       Cu  0.98264777  0.32237313  0.31214621     1.04300
C53         C  0.99037732  0.33809511  0.27167612     0.95000
C54         C  0.00378145  0.37623381  0.34504265     0.94100
C55         C  0.07147345  0.32064090  0.30856056     0.86300
C56         C  0.92397584  0.39412252  0.30795425     0.92500
O57         O  0.49780994  0.09678419  0.14842771    -0.71200
O58         O  0.50666308  0.12463751  0.20445253    -0.72200
O59         O  0.55970251  0.08580191  0.17686626    -0.60800
O60         O  0.44528642  0.13601681  0.17623162    -0.69200
O61         O  0.41935855  0.06948127  0.18242418    -0.68800
O62         O  0.53404594  0.01952523  0.18381409    -0.60000
O63         O  0.48030617  0.05854903  0.21112985    -0.72500
O64         O  0.47347127  0.02986402  0.15524630    -0.71300
Cu65       Cu  0.50324581  0.11312915  0.17622804     1.04600
Cu66       Cu  0.47587812  0.04205935  0.18339680     1.04300
C67         C  0.48454518  0.05888161  0.14302024     0.95000
C68         C  0.49485076  0.09584964  0.21662523     0.94100
C69         C  0.56489692  0.04475163  0.18060041     0.86300
C70         C  0.41430578  0.11078639  0.17923472     0.92500
O71         O  0.51578644  0.14902063  0.33307608    -0.71200
O72         O  0.50761403  0.12301604  0.27694392    -0.72200
O73         O  0.45709427  0.16611803  0.30451951    -0.60800
O74         O  0.56711651  0.10524691  0.30561396    -0.69200
O75         O  0.53646598  0.04086008  0.31142833    -0.68800
O76         O  0.42684211  0.10188460  0.31106365    -0.60000
O77         O  0.47665889  0.05907831  0.28330087    -0.72500
O78         O  0.48674690  0.08405754  0.33947996    -0.71300
Cu79       Cu  0.51309888  0.13804282  0.30481883     1.04600
Cu80       Cu  0.48064276  0.06923467  0.31156889     1.04300
C81         C  0.50191945  0.12092499  0.34510740     0.95000
C82         C  0.49052325  0.08713138  0.27127391     0.94100
C83         C  0.42458907  0.14342602  0.30767108     0.86300
C84         C  0.56912077  0.06345919  0.30841059     0.92500
O85         O  0.20807992  0.28981062  0.18324856    -0.71200
O86         O  0.31988144  0.23400353  0.18231984    -0.72200
O87         O  0.26855831  0.27564495  0.15482124    -0.60800
O88         O  0.25837494  0.24780710  0.21082687    -0.69200
O89         O  0.22984570  0.18291106  0.20375425    -0.68800
O90         O  0.24194117  0.20958801  0.14809559    -0.60000
O91         O  0.29211285  0.16832212  0.17597906    -0.72500
O92         O  0.17972590  0.22479336  0.17620227    -0.71300
Cu93       Cu  0.26477548  0.26404705  0.18306637     1.04600
Cu94       Cu  0.23493127  0.19413193  0.17573760     1.04300
C95         C  0.17630121  0.26623008  0.17986628     0.95000
C96         C  0.32374474  0.19251702  0.17913067     0.94100
C97         C  0.25658702  0.24674791  0.14264714     0.86300
C98         C  0.24211434  0.21114171  0.21608325     0.92500
O99         O  0.21592017  0.15433022  0.33201170    -0.71200
O100        O  0.22613745  0.18211862  0.27601619    -0.72200
O101        O  0.27657393  0.14046669  0.30364546    -0.60800
O102        O  0.16441164  0.19575130  0.30453341    -0.69200
O103        O  0.19229520  0.26137107  0.31087635    -0.68800
O104        O  0.30466583  0.20560425  0.31072942    -0.60000
O105        O  0.25453774  0.24708477  0.28308693    -0.72500
O106        O  0.24239653  0.22049048  0.33869685    -0.71300
Cu107      Cu  0.21971747  0.16589571  0.30377636     1.04600
Cu108      Cu  0.24943142  0.23589964  0.31110205     1.04300
C109        C  0.22776775  0.18334576  0.34415742     0.95000
C110        C  0.24235745  0.21880544  0.27075957     0.94100
C111        C  0.30823416  0.16417789  0.30712743     0.86300
C112        C  0.16060794  0.23722331  0.30780030     0.92500
O113        O  0.30390299  0.47333348  0.81079951    -0.71200
O114        O  0.18951996  0.52395133  0.81179551    -0.72200
O115        O  0.24254066  0.48593476  0.83960308    -0.60800
O116        O  0.25047092  0.51046278  0.78328583    -0.69200
O117        O  0.22361205  0.44412849  0.77740278    -0.68800
O118        O  0.21813694  0.41862920  0.83342850    -0.60000
O119        O  0.16329488  0.45710865  0.80643340    -0.72500
O120        O  0.27794816  0.40678438  0.80446652    -0.71300
Cu121      Cu  0.24747281  0.50077372  0.81162772     1.04600
Cu122      Cu  0.21979458  0.42937046  0.80522667     1.04300
C123        C  0.30892391  0.43208641  0.80728619     0.95000
C124        C  0.15841512  0.49870475  0.80914493     0.94100
C125        C  0.22968009  0.44819287  0.84535931     0.86300
C126        C  0.23829042  0.48092225  0.77147265     0.92500
O127        O  0.21986641  0.43874167  0.70537945    -0.71200
O128        O  0.23133528  0.45912477  0.64900199    -0.72200
O129        O  0.28008046  0.41742711  0.67738185    -0.60800
O130        O  0.17087664  0.47991340  0.67712873    -0.69200
O131        O  0.19473455  0.04310147  0.68386567    -0.68800
O132        O  0.31096025  0.48207371  0.68246375    -0.60000
O133        O  0.25480885  0.03016376  0.65504608    -0.72500
O134        O  0.25123026  0.50291366  0.71093415    -0.71300
Cu135      Cu  0.22443480  0.44655154  0.67701159     1.04600
Cu136      Cu  0.25270393  0.01993280  0.68329796     1.04300
C137        C  0.23378553  0.46768782  0.71704091     0.95000
C138        C  0.24721787  0.49523005  0.64296113     0.94100
C139        C  0.31283718  0.44010444  0.67998010     0.86300
C140        C  0.16359134  0.01807930  0.68097874     0.92500
O141        O  0.53756882  0.31254770  0.80895123    -0.71200
O142        O  0.42875887  0.37374481  0.80829724    -0.72200
O143        O  0.48168860  0.33816370  0.77981448    -0.60800
O144        O  0.48541470  0.35079427  0.83738360    -0.69200
O145        O  0.51545905  0.41634900  0.83370360    -0.68800
O146        O  0.51327711  0.40313152  0.77711470    -0.60000
O147        O  0.45881366  0.43936530  0.80498306    -0.72500
O148        O  0.56943004  0.37731929  0.80614902    -0.71300
Cu149      Cu  0.48230195  0.34150517  0.80871222     1.04600
Cu150      Cu  0.51545827  0.41124531  0.80537308     1.04300
C151        C  0.57073326  0.33503286  0.80768287     0.95000
C152        C  0.42623092  0.41576004  0.80661094     0.94100
C153        C  0.49684604  0.36912625  0.76944871     0.86300
C154        C  0.50035538  0.38646921  0.84449943     0.92500
O155        O  0.52102735  0.26289422  0.68313718    -0.71200
O156        O  0.40499775  0.31235243  0.68155429    -0.72200
O157        O  0.46212445  0.27820338  0.65423539    -0.60800
O158        O  0.46334729  0.29404564  0.71064095    -0.69200
O159        O  0.49018270  0.36134803  0.70752901    -0.68800
O160        O  0.48660166  0.34615372  0.64994195    -0.60000
O161        O  0.43187583  0.37957322  0.67842496    -0.72500
O162        O  0.54585067  0.33080333  0.67908889    -0.71300
Cu163      Cu  0.46194180  0.28452847  0.68250784     1.04600
Cu164      Cu  0.48945757  0.35688372  0.67860531     1.04300
C165        C  0.55165461  0.28936419  0.68133679     0.95000
C166        C  0.40048975  0.35432626  0.67988977     0.94100
C167        C  0.47424845  0.30900630  0.64313161     0.86300
C168        C  0.47727715  0.32956153  0.71808597     0.92500
O169        O  0.73136306  0.21521981  0.65037859    -0.71200
O170        O  0.72999587  0.20915043  0.70840389    -0.72200
O171        O  0.67432282  0.23751514  0.67985451    -0.60800
O172        O  0.78563630  0.18313379  0.67900654    -0.69200
O173        O  0.81525222  0.24933839  0.68051638    -0.68800
O174        O  0.70116389  0.30503892  0.68177467    -0.60000
O175        O  0.75869124  0.27593346  0.70943847    -0.72500
O176        O  0.75885206  0.28230772  0.65299225    -0.71300
Cu177      Cu  0.72937011  0.20886797  0.67935442     1.04600
Cu178      Cu  0.75953193  0.28046022  0.68122234     1.04300
C179        C  0.74504848  0.25079846  0.64267374     0.95000
C180        C  0.74422865  0.24214835  0.71794731     0.94100
C181        C  0.66972142  0.27938577  0.68099051     0.86300
C182        C  0.81801272  0.20697721  0.67966349     0.92500
O183        O  0.68781314  0.26905487  0.80943524    -0.71200
O184        O  0.79882435  0.21332133  0.80842902    -0.72200
O185        O  0.74321180  0.24268897  0.77998188    -0.60800
O186        O  0.74207340  0.23595174  0.83804002    -0.69200
O187        O  0.71386954  0.16925319  0.83526347    -0.68800
O188        O  0.71388644  0.17623083  0.77885528    -0.60000
O189        O  0.77119549  0.14618827  0.80639674    -0.72500
O190        O  0.65770020  0.20312135  0.80780298    -0.71300
Cu191      Cu  0.74394885  0.24265446  0.80904250     1.04600
Cu192      Cu  0.71308904  0.17143784  0.80704475     1.04300
C193        C  0.65525610  0.24549850  0.80865035     0.95000
C194        C  0.80294864  0.17139376  0.80718044     0.94100
C195        C  0.72864475  0.20992749  0.77039439     0.86300
C196        C  0.72823010  0.20033323  0.84565868     0.92500
O197        O  0.01363842  0.01219417  0.68219088    -0.71200
O198        O  0.90359543  0.07514847  0.68092255    -0.72200
O199        O  0.95775913  0.03657827  0.65339129    -0.60800
O200        O  0.95890662  0.04797302  0.70994134    -0.69200
O201        O  0.99106262  0.11272653  0.70769310    -0.68800
O202        O  0.98830712  0.10195625  0.65003411    -0.60000
O203        O  0.93584564  0.13980076  0.67854284    -0.72500
O204        O  0.04424353  0.07761838  0.67923474    -0.71300
Cu205      Cu  0.95723871  0.04079444  0.68169287     1.04600
Cu206      Cu  0.99093398  0.11035330  0.67878275     1.04300
C207        C  0.04642375  0.03555408  0.68082137     0.95000
C208        C  0.90255502  0.11748650  0.67966826     0.94100
C209        C  0.97333983  0.06647722  0.64275341     0.86300
C210        C  0.97550402  0.08157817  0.71783107     0.92500
O211        O  0.03948518  0.06649740  0.80881338    -0.71200
O212        O  0.92615413  0.11758198  0.80833678    -0.72200
O213        O  0.98155746  0.08702858  0.77972706    -0.60800
O214        O  0.98518472  0.09997996  0.83737003    -0.69200
O215        O  0.01061377  0.16766108  0.83346168    -0.68800
O216        O  0.00953295  0.15391304  0.77710153    -0.60000
O217        O  0.95205086  0.18513681  0.80468434    -0.72500
O218        O  0.06729436  0.13339586  0.80618420    -0.71300
Cu219      Cu  0.98219771  0.09035933  0.80866730     1.04600
Cu220      Cu  0.01082194  0.16233972  0.80524419     1.04300
C221        C  0.07123739  0.09132202  0.80772609     0.95000
C222        C  0.92098661  0.15921001  0.80636636     0.94100
C223        C  0.99507422  0.11895453  0.76941166     0.86300
C224        C  0.99821624  0.13665132  0.84437558     0.92500
O225        O  0.73298183  0.34450561  0.58815874    -0.71200
O226        O  0.72501156  0.37259226  0.53246191    -0.72200
O227        O  0.67267550  0.33128160  0.55950509    -0.60800
O228        O  0.78547099  0.38589210  0.56099992    -0.69200
O229        O  0.81303723  0.31998326  0.55487528    -0.68800
O230        O  0.70037971  0.26599303  0.55226996    -0.60000
O231        O  0.75346463  0.30757134  0.52548459    -0.72500
O232        O  0.75869318  0.27796718  0.58148620    -0.71300
Cu233      Cu  0.72811408  0.36085211  0.56053873     1.04600
Cu234      Cu  0.75747688  0.29063597  0.55325758     1.04300
C235        C  0.74617404  0.30676214  0.59361804     0.95000
C236        C  0.73780101  0.34441698  0.52016276     0.94100
C237        C  0.66883344  0.29001609  0.55566887     0.86300
C238        C  0.81708270  0.36143230  0.55818434     0.92500
O239        O  0.80254179  0.35006324  0.42523474    -0.71200
O240        O  0.69004625  0.29359430  0.42533789    -0.72200
O241        O  0.74050074  0.33477105  0.39721353    -0.60800
O242        O  0.75213221  0.30844262  0.45305174    -0.69200
O243        O  0.72356980  0.37334284  0.46014133    -0.68800
O244        O  0.71371362  0.40064278  0.40416000    -0.60000
O245        O  0.66225111  0.35923367  0.43180134    -0.72500
O246        O  0.77408997  0.41502099  0.43237123    -0.71300
Cu247      Cu  0.74727433  0.31941752  0.42494312     1.04600
Cu248      Cu  0.71735431  0.38927787  0.43237713     1.04300
C249        C  0.80591230  0.39150356  0.42888325     0.95000
C250        C  0.65839635  0.31776023  0.42858987     0.94100
C251        C  0.72589173  0.37199321  0.39187157     0.86300
C252        C  0.73978970  0.33673623  0.46540269     0.92500
O253        O  0.03326852  0.01750199  0.42623659    -0.71200
O254        O  0.92451835  0.45491811  0.42641915    -0.72200
O255        O  0.97271482  0.49718719  0.45486139    -0.60800
O256        O  0.98604103  0.47409079  0.39860436    -0.69200
O257        O  0.01520488  0.40923970  0.40492918    -0.68800
O258        O  0.00363569  0.43325686  0.46109114    -0.60000
O259        O  0.95475870  0.39072010  0.43284985    -0.72500
O260        O  0.06459468  0.45231371  0.43296303    -0.71300
Cu261      Cu  0.97824434  0.48794520  0.42654312     1.04600
Cu262      Cu  0.01070418  0.41918936  0.43318705     1.04300
C263        C  0.06658874  0.49412132  0.43021390     0.95000
C264        C  0.92229215  0.41324074  0.42952864     0.94100
C265        C  0.98611803  0.46887126  0.46683630     0.86300
C266        C  0.00207420  0.43765964  0.39292035     0.92500
O267        O  0.00036605  0.43025619  0.53364647    -0.71200
O268        O  0.99072441  0.45824232  0.58983865    -0.72200
O269        O  0.93866061  0.41839262  0.56198390    -0.60800
O270        O  0.05291123  0.46924037  0.56118720    -0.69200
O271        O  0.02644863  0.04320772  0.55301196    -0.68800
O272        O  0.91256291  0.48472617  0.55569565    -0.60000
O273        O  0.96597393  0.03597203  0.58201033    -0.72500
O274        O  0.97388519  0.49622461  0.52700893    -0.71300
Cu275      Cu  0.99653693  0.44170327  0.56194059     1.04600
Cu276      Cu  0.96897948  0.51255889  0.55471963     1.04300
C277        C  0.98868964  0.45905320  0.52148410     0.95000
C278        C  0.97721957  0.49617585  0.59515717     0.94100
C279        C  0.90763430  0.44338007  0.55888483     0.86300
C280        C  0.05676969  0.01740943  0.55632860     0.92500
O281        O  0.21256062  0.14690952  0.46047716    -0.71200
O282        O  0.21019456  0.15870845  0.40378536    -0.72200
O283        O  0.15500352  0.12388025  0.43154456    -0.60800
O284        O  0.26782593  0.18021865  0.43240774    -0.69200
O285        O  0.29579321  0.11351021  0.42897565    -0.68800
O286        O  0.18430148  0.05765470  0.42890760    -0.60000
O287        O  0.23758378  0.09172419  0.40026227    -0.72500
O288        O  0.24201415  0.08078487  0.45764340    -0.71300
Cu289      Cu  0.21031350  0.15470504  0.43217351     1.04600
Cu290      Cu  0.24088300  0.08355889  0.42885186     1.04300
C291        C  0.22798890  0.11237500  0.46806356     0.95000
C292        C  0.22381147  0.12764193  0.39306105     0.94100
C293        C  0.15204487  0.08171774  0.43009844     0.86300
C294        C  0.29960924  0.15547405  0.43067022     0.92500
O295        O  0.20602392  0.00453225  0.55437316    -0.71200
O296        O  0.31916051  0.06058317  0.55635751    -0.72200
O297        O  0.26263590  0.02503180  0.58355107    -0.60800
O298        O  0.26254451  0.03813886  0.52686305    -0.69200
O299        O  0.23317687  0.10430475  0.52968215    -0.68800
O300        O  0.23563276  0.09220385  0.58705534    -0.60000
O301        O  0.28982491  0.12679039  0.55890745    -0.72500
O302        O  0.17847436  0.07142554  0.55784539    -0.71300
Cu303      Cu  0.26370053  0.02977396  0.55516560     1.04600
Cu304      Cu  0.23334705  0.10100727  0.55847048     1.04300
C305        C  0.17438370  0.02955299  0.55598529     0.95000
C306        C  0.32210043  0.10276285  0.55788842     0.94100
C307        C  0.24876686  0.05599650  0.59425417     0.86300
C308        C  0.24741983  0.07281905  0.51926727     0.92500
O309        O  0.50043571  0.18529896  0.53311603    -0.71200
O310        O  0.49021064  0.21255599  0.58907924    -0.72200
O311        O  0.44063618  0.16801994  0.56158833    -0.60800
O312        O  0.55007399  0.22905305  0.56034385    -0.69200
O313        O  0.51998328  0.29318943  0.55362050    -0.68800
O314        O  0.40991585  0.23214579  0.55550689    -0.60000
O315        O  0.46115810  0.27735527  0.58253066    -0.72500
O316        O  0.46961421  0.24906637  0.52648301    -0.71300
Cu317      Cu  0.49636088  0.19653316  0.56130054     1.04600
Cu318      Cu  0.46394436  0.26513466  0.55430064     1.04300
C319        C  0.48682835  0.21306722  0.52096743     0.95000
C320        C  0.47499860  0.24952632  0.59461585     0.94100
C321        C  0.40796354  0.19042732  0.55855890     0.86300
C322        C  0.55242867  0.27045994  0.55670573     0.92500
O323        O  0.50930632  0.15479386  0.40512670    -0.71200
O324        O  0.50057759  0.18415188  0.46092839    -0.72200
O325        O  0.44783231  0.14469781  0.43353199    -0.60800
O326        O  0.56255705  0.19481885  0.43234987    -0.69200
O327        O  0.53683405  0.26122608  0.42587073    -0.68800
O328        O  0.42243006  0.21087363  0.42634392    -0.60000
O329        O  0.47452448  0.25014784  0.45397467    -0.72500
O330        O  0.48515021  0.22155137  0.39801924    -0.71300
Cu331      Cu  0.50600266  0.16732499  0.43323898     1.04600
Cu332      Cu  0.47887474  0.23827711  0.42578067     1.04300
C333        C  0.49854439  0.18355164  0.39277009     0.95000
C334        C  0.48575254  0.22148068  0.46627073     0.94100
C335        C  0.41709587  0.16987708  0.43017641     0.86300
C336        C  0.56772410  0.23605675  0.42900602     0.92500
O337        O  0.21389124  0.41928536  0.90508224    -0.71200
O338        O  0.21653192  0.40089906  0.96153853    -0.72200
O339        O  0.27124912  0.43814113  0.93415998    -0.60800
O340        O  0.15907982  0.38026181  0.93217380    -0.69200
O341        O  0.18905302  0.31471978  0.92826578    -0.68800
O342        O  0.29980145  0.37212402  0.92945669    -0.60000
O343        O  0.24661112  0.33545792  0.95742142    -0.72500
O344        O  0.24184066  0.35297642  0.90030767    -0.71300
Cu345      Cu  0.21405796  0.41189170  0.93340311     1.04600
Cu346      Cu  0.24530457  0.34150720  0.92870618     1.04300
C347        C  0.22783563  0.38951568  0.89378336     0.95000
C348        C  0.23236083  0.36579007  0.96845193     0.94100
C349        C  0.30324213  0.41390374  0.93197263     0.86300
C350        C  0.15654586  0.33820623  0.92999579     0.92500
O351        O  0.21515229  0.25230881  0.05430692    -0.71200
O352        O  0.32759266  0.30988971  0.05513256    -0.72200
O353        O  0.27322045  0.27310642  0.08288148    -0.60800
O354        O  0.26945624  0.28771584  0.02617596    -0.69200
O355        O  0.23965196  0.35343530  0.02983247    -0.68800
O356        O  0.24534206  0.33966613  0.08704274    -0.60000
O357        O  0.29785132  0.37569603  0.05852602    -0.72500
O358        O  0.18675937  0.31860055  0.05841667    -0.71300
Cu359      Cu  0.27246557  0.27848003  0.05446884     1.04600
Cu360      Cu  0.24142401  0.34917092  0.05856591     1.04300
C361        C  0.18321261  0.27666404  0.05644279     0.95000
C362        C  0.33029436  0.35199923  0.05700171     0.94100
C363        C  0.25954805  0.30359147  0.09390939     0.86300
C364        C  0.25362509  0.32256173  0.01901085     0.92500
O365        O  0.80421195  0.11344180  0.92743091    -0.71200
O366        O  0.69081983  0.06028759  0.92579829    -0.72200
O367        O  0.74279212  0.10358895  0.89898950    -0.60800
O368        O  0.75242717  0.07020498  0.95404520    -0.69200
O369        O  0.72495923  0.13491621  0.96231272    -0.68800
O370        O  0.71773048  0.16972031  0.90685503    -0.60000
O371        O  0.66401705  0.12584156  0.93323840    -0.72500
O372        O  0.77735598  0.17841540  0.93581555    -0.71300
Cu373      Cu  0.74844778  0.08463790  0.92625355     1.04600
Cu374      Cu  0.71996192  0.15447626  0.93487236     1.04300
C375        C  0.80858109  0.15428718  0.93192586     0.95000
C376        C  0.65950275  0.08474050  0.92928780     0.94100
C377        C  0.72956974  0.14181460  0.89419684     0.86300
C378        C  0.74046161  0.09743357  0.96689707     0.92500
O379        O  0.74118979  0.09805712  0.08969347    -0.71200
O380        O  0.72910807  0.12835033  0.03446791    -0.72200
O381        O  0.67846217  0.08575963  0.06181741    -0.60800
O382        O  0.79189178  0.14000535  0.06205522    -0.69200
O383        O  0.81854609  0.07420525  0.05489234    -0.68800
O384        O  0.70581772  0.02074533  0.05386274    -0.60000
O385        O  0.75656288  0.06345239  0.02646110    -0.72500
O386        O  0.76661421  0.03186776  0.08218041    -0.71300
Cu387      Cu  0.73422722  0.11531275  0.06230703     1.04600
Cu388      Cu  0.76289044  0.04531738  0.05404971     1.04300
C389        C  0.75529059  0.06037744  0.09470088     0.95000
C390        C  0.74079260  0.10071216  0.02173053     0.94100
C391        C  0.67442769  0.04462530  0.05769883     0.86300
C392        C  0.82312704  0.11540586  0.05853500     0.92500
O393        O  0.51074771  0.41486344  0.90514552    -0.71200
O394        O  0.50613824  0.44147743  0.96124852    -0.72200
O395        O  0.45145724  0.40356375  0.93429142    -0.60800
O396        O  0.56605636  0.45383962  0.93196223    -0.69200
O397        O  0.54005810  0.52072195  0.92672484    -0.68800
O398        O  0.42569409  0.47010656  0.92804172    -0.60000
O399        O  0.47942363  0.50777194  0.95541614    -0.72500
O400        O  0.48662072  0.48223382  0.89912170    -0.71300
Cu401      Cu  0.50956457  0.42615272  0.93337589     1.04600
Cu402      Cu  0.48207770  0.49755887  0.92708154     1.04300
C403        C  0.49919365  0.44435015  0.89328925     0.95000
C404        C  0.49160529  0.47842307  0.96720833     0.94100
C405        C  0.42056877  0.42890428  0.93150333     0.86300
C406        C  0.57108828  0.49535451  0.92920150     0.92500
O407        O  0.52535725  0.04687609  0.05477449    -0.71200
O408        O  0.41792581  0.48172766  0.05594990    -0.72200
O409        O  0.46699632  0.02700112  0.08333761    -0.60800
O410        O  0.47810965  0.50177523  0.02768319    -0.69200
O411        O  0.50951936  0.43787381  0.03345101    -0.68800
O412        O  0.49756735  0.45981332  0.08989758    -0.60000
O413        O  0.44895476  0.41742448  0.06131414    -0.72500
O414        O  0.55836339  0.47980001  0.06176253    -0.71300
Cu415      Cu  0.46946994  0.01825292  0.05498174     1.04600
Cu416      Cu  0.50466966  0.44646065  0.06183585     1.04300
C417        C  0.55795975  0.02415643  0.05753029     0.95000
C418        C  0.41616438  0.43981649  0.05843715     0.94100
C419        C  0.48160900  0.49614886  0.09575877     0.86300
C420        C  0.49569957  0.46643685  0.02168745     0.92500
O421        O  0.92802301  0.21373804  0.92815752    -0.71200
O422        O  0.03801078  0.27336568  0.92667279    -0.72200
O423        O  0.98681492  0.23117736  0.89917454    -0.60800
O424        O  0.97928380  0.25492810  0.95548157    -0.69200
O425        O  0.00973952  0.19036973  0.96101718    -0.68800
O426        O  0.01524781  0.16555461  0.90478377    -0.60000
O427        O  0.06839377  0.20856573  0.93170841    -0.72500
O428        O  0.95751475  0.14878703  0.93395444    -0.71300
Cu429      Cu  0.98203957  0.24554770  0.92714421     1.04600
Cu430      Cu  0.01394632  0.17609716  0.93306728     1.04300
C431        C  0.92525471  0.17215233  0.93131274     0.95000
C432        C  0.07061652  0.25046347  0.92912326     0.94100
C433        C  0.00115689  0.19422148  0.89314676     0.86300
C434        C  0.99311267  0.22614140  0.96713038     0.92500
O435        O  0.99831326  0.20748173  0.08972512    -0.71200
O436        O  0.00747377  0.18339794  0.03332279    -0.72200
O437        O  0.06046155  0.22029770  0.06120694    -0.60800
O438        O  0.94568577  0.17022773  0.06156880    -0.69200
O439        O  0.92018216  0.23723429  0.05609758    -0.68800
O440        O  0.03492423  0.28699456  0.05507362    -0.60000
O441        O  0.98145695  0.25001902  0.02749253    -0.72500
O442        O  0.97408212  0.27472366  0.08356804    -0.71300
Cu443      Cu  0.00385137  0.19296928  0.06169415     1.04600
Cu444      Cu  0.97674226  0.26452778  0.05535261     1.04300
C445        C  0.98505344  0.24512078  0.09550324     0.95000
C446        C  0.99605082  0.21311323  0.02153442     0.94100
C447        C  0.06573620  0.26155345  0.05786879     0.86300
C448        C  0.91485939  0.19581009  0.05889937     0.92500
C449        C  0.98932721  0.23465586  0.98778383    -0.14700
C450        C  0.00016801  0.20445538  0.00089233    -0.29900
H451        H  0.97672195  0.26640979  0.99228134     0.14300
H452        H  0.01250805  0.17257252  0.99640775     0.14900
C453        C  0.48821888  0.48751154  0.98785526    -0.14700
C454        C  0.50018793  0.45797366  0.00103882    -0.29900
H455        H  0.47506017  0.51905678  0.99228634     0.14300
H456        H  0.51359342  0.42655197  0.99660547     0.14900
C457        C  0.63359183  0.02348813  0.05745509    -0.14700
C458        C  0.59828921  0.04663978  0.05763536    -0.29900
H459        H  0.63269544  0.98750840  0.05669981     0.14300
H460        H  0.59897201  0.08264968  0.05760941     0.14900
C461        C  0.87257097  0.17778790  0.05904993    -0.14700
C462        C  0.86516757  0.13396742  0.05868370    -0.29900
H463        H  0.84703322  0.20107170  0.05899991     0.14300
H464        H  0.89076429  0.11078990  0.05798849     0.14900
C465        C  0.84970889  0.17465429  0.93237815    -0.14700
C466        C  0.88452590  0.15067871  0.93168794    -0.29900
H467        H  0.85128764  0.21057330  0.93340262     0.14300
H468        H  0.88314968  0.11469029  0.93146224     0.14900
C469        C  0.61754394  0.06585590  0.92884106    -0.14700
C470        C  0.61060245  0.02190369  0.92828322    -0.29900
H471        H  0.59172010  0.08872454  0.92959299     0.14300
H472        H  0.63641182  0.99896576  0.92830383     0.14900
C473        C  0.74528121  0.08497906  0.98712319    -0.14700
C474        C  0.73555822  0.11269837  0.00148394    -0.29900
H475        H  0.75771617  0.05237109  0.99023568     0.14300
H476        H  0.72315738  0.14531219  0.99835185     0.14900
C477        C  0.14191920  0.25606848  0.05683887    -0.14700
C478        C  0.10745283  0.28081972  0.05724115    -0.29900
H479        H  0.13982297  0.22011016  0.05674373     0.14300
H480        H  0.10972188  0.31675075  0.05674378     0.14900
C481        C  0.37130319  0.37330013  0.05753422    -0.14700
C482        C  0.37561238  0.41769927  0.05792516    -0.29900
H483        H  0.39837887  0.35212798  0.05747223     0.14300
H484        H  0.34848811  0.43877228  0.05747232     0.14900
C485        C  0.34449686  0.43443805  0.93211322    -0.14700
C486        C  0.37891209  0.40961950  0.93210931    -0.29900
H487        H  0.34660822  0.47039637  0.93217747     0.14300
H488        H  0.37661504  0.37369304  0.93266622     0.14900
C489        C  0.11565191  0.31671679  0.92950203    -0.14700
C490        C  0.11134372  0.27227820  0.92914174    -0.29900
H491        H  0.08856474  0.33786907  0.92979248     0.14300
H492        H  0.13844122  0.25114908  0.92940369     0.14900
C493        C  0.23407758  0.36127722  0.98941049    -0.14700
C494        C  0.25167732  0.32645413  0.99801915    -0.29900
H495        H  0.22079601  0.38779262  0.99799285     0.14300
H496        H  0.26497063  0.29989670  0.98946566     0.14900
C497        C  0.49150451  0.20294883  0.50045216    -0.14700
C498        C  0.48105375  0.23191283  0.48676924    -0.29900
H499        H  0.50436276  0.17090087  0.49654288     0.14300
H500        H  0.46847470  0.26409682  0.49066356     0.14900
C501        C  0.36740961  0.16838353  0.55841022    -0.14700
C502        C  0.36311312  0.12394963  0.55848591    -0.29900
H503        H  0.34032492  0.18946425  0.55767763     0.14300
H504        H  0.39015250  0.10273551  0.55869083     0.14900
C505        C  0.34102766  0.17568183  0.43043885    -0.14700
C506        C  0.37535076  0.15071458  0.43069202    -0.29900
H507        H  0.34332820  0.21161615  0.43013999     0.14300
H508        H  0.37290339  0.11484526  0.43160394     0.14900
C509        C  0.22937104  0.10984206  0.48907664    -0.14700
C510        C  0.24645030  0.07555477  0.49825112    -0.29900
H511        H  0.21604655  0.13710964  0.49719224     0.14300
H512        H  0.25975799  0.04827512  0.49013645     0.14900
C513        C  0.09884073  0.03557373  0.55552289    -0.14700
C514        C  0.13273701  0.00993565  0.55598234    -0.29900
H515        H  0.10189509  0.07135917  0.55441905     0.14300
H516        H  0.12989002  0.97406009  0.55646871     0.14900
C517        C  0.10636926  0.01640624  0.42992964    -0.14700
C518        C  0.11096344  0.06075556  0.42970254    -0.29900
H519        H  0.13425676  0.49492034  0.43139536     0.14300
H520        H  0.08405609  0.08215895  0.42939704     0.14900
C521        C  0.98118523  0.47803184  0.48742395    -0.14700
C522        C  0.99287568  0.44909406  0.50091590    -0.29900
H523        H  0.96758842  0.50958016  0.49155541     0.14300
H524        H  0.00624892  0.41742518  0.49680872     0.14900
C525        C  0.84651416  0.41329346  0.42903252    -0.14700
C526        C  0.88204607  0.39054238  0.42922823    -0.29900
H527        H  0.84705254  0.44930621  0.42949021     0.14300
H528        H  0.88163101  0.35453553  0.42956520     0.14900
C529        C  0.60985486  0.25448960  0.42876132    -0.14700
C530        C  0.61668480  0.29842691  0.42860752    -0.29900
H531        H  0.63565490  0.23156987  0.42914900     0.14300
H532        H  0.59077672  0.32123727  0.42898268     0.14900
C533        C  0.62796610  0.26902804  0.55545921    -0.14700
C534        C  0.59287225  0.29249781  0.55618843    -0.29900
H535        H  0.62681440  0.23306549  0.55463931     0.14300
H536        H  0.59378606  0.32850262  0.55621958     0.14900
C537        C  0.85887056  0.38063481  0.55870876    -0.14700
C538        C  0.86562094  0.42462647  0.55888409    -0.29900
H539        H  0.88480508  0.35785979  0.55839842     0.14300
H540        H  0.83976814  0.44747453  0.55844321     0.14900
C541        C  0.74463537  0.32639994  0.48584861    -0.14700
C542        C  0.73374369  0.35502785  0.49970760    -0.29900
H543        H  0.75751942  0.29434113  0.48955682     0.14300
H544        H  0.72084259  0.38707611  0.49599240     0.14900
C545        C  0.99897610  0.14384037  0.86522235    -0.14700
C546        C  0.00119331  0.18514868  0.87251293    -0.29900
H547        H  0.99638387  0.11540148  0.87463186     0.14300
H548        H  0.00071284  0.21358977  0.86303174     0.14900
C549        C  0.97447059  0.01739781  0.61487964    -0.14700
C550        C  0.97473129  0.05897805  0.62193054    -0.29900
H551        H  0.97433143  0.98940218  0.62461340     0.14300
H552        H  0.97796067  0.08720589  0.61244978     0.14900
C553        C  0.99424972  0.11672735  0.74839491    -0.14700
C554        C  0.97647720  0.08332625  0.73886576    -0.29900
H555        H  0.00818516  0.14393625  0.74055297     0.14300
H556        H  0.96228862  0.05623892  0.74668735     0.14900
C557        C  0.72928538  0.19375769  0.86658158    -0.14700
C558        C  0.72763623  0.15236070  0.87372356    -0.29900
H559        H  0.73306245  0.22216653  0.87599607     0.14300
H560        H  0.72695541  0.12417426  0.86400279     0.14900
C561        C  0.87888200  0.17776514  0.80618477    -0.14700
C562        C  0.84480883  0.15207493  0.80676008    -0.29900
H563        H  0.87592025  0.21362732  0.80563701     0.14300
H564        H  0.84764748  0.11618328  0.80698312     0.14900
C565        C  0.74471740  0.25659217  0.62171879    -0.14700
C566        C  0.74714432  0.29758715  0.61422022    -0.29900
H567        H  0.74107054  0.22779321  0.61251386     0.14300
H568        H  0.74773126  0.32629164  0.62365477     0.14900
C569        C  0.86239104  0.14047006  0.67958515    -0.14700
C570        C  0.85880464  0.18509091  0.67949791    -0.29900
H571        H  0.83492304  0.11987863  0.67983051     0.14300
H572        H  0.88616373  0.20584753  0.67949780     0.14900
C573        C  0.74438783  0.24257301  0.73899115    -0.14700
C574        C  0.72845948  0.20961065  0.74935340    -0.29900
H575        H  0.75783725  0.27113309  0.74613341     0.14300
H576        H  0.71497583  0.18107558  0.74220480     0.14900
C577        C  0.47361623  0.25944891  0.61521738    -0.14700
C578        C  0.47420896  0.30104255  0.62229295    -0.29900
H579        H  0.47454478  0.23140444  0.62490782     0.14300
H580        H  0.47636864  0.32922372  0.61272101     0.14900
C581        C  0.59400502  0.27166525  0.68172674    -0.14700
C582        C  0.62763313  0.29801997  0.68124798    -0.29900
H583        H  0.59752806  0.23587176  0.68237302     0.14300
H584        H  0.62424201  0.33385348  0.68094481     0.14900
C585        C  0.49972604  0.39385041  0.86533750    -0.14700
C586        C  0.50053504  0.43521973  0.87262734    -0.29900
H587        H  0.49671036  0.36542141  0.87472288     0.14300
H588        H  0.50044305  0.46356542  0.86308712     0.14900
C589        C  0.61100499  0.31221169  0.80798263    -0.14700
C590        C  0.61457411  0.26761498  0.80860050    -0.29900
H591        H  0.63847483  0.33278009  0.80750379     0.14300
H592        H  0.58717899  0.24691540  0.80880185     0.14900
C593        C  0.49561678  0.36664785  0.74840502    -0.14700
C594        C  0.47823863  0.33261093  0.73910676    -0.29900
H595        H  0.50936277  0.39367533  0.74037901     0.14300
H596        H  0.46478591  0.30544802  0.74715540     0.14900
C597        C  0.24581901  0.00846213  0.62253244    -0.14700
C598        C  0.24735170  0.04946271  0.61508937    -0.29900
H599        H  0.24852080  0.47422576  0.61286953     0.14300
H600        H  0.24548732  0.07840824  0.62434294     0.14900
C601        C  0.12215566  0.03797014  0.68142223    -0.14700
C602        C  0.08723356  0.01390053  0.68090194    -0.29900
H603        H  0.12048894  0.07391152  0.68232984     0.14300
H604        H  0.08861322  0.97791309  0.68052269     0.14900
C605        C  0.35879154  0.37411937  0.67969574    -0.14700
C606        C  0.35357129  0.41845009  0.68008634    -0.29900
H607        H  0.33223500  0.35219115  0.67948664     0.14300
H608        H  0.38030832  0.44008532  0.68078793     0.14900
C609        C  0.22816228  0.43911256  0.86600706    -0.14700
C610        C  0.22817894  0.39764162  0.87302971    -0.29900
H611        H  0.22888171  0.46732024  0.87571098     0.14300
H612        H  0.23048628  0.36935474  0.86342132     0.14900
C613        C  0.35051883  0.41263290  0.80658195    -0.14700
C614        C  0.38525028  0.43705170  0.80676628    -0.29900
H615        H  0.35246315  0.37670206  0.80571947     0.14300
H616        H  0.38358140  0.47302981  0.80707957     0.14900
C617        C  0.11275350  0.07107582  0.80832642    -0.14700
C618        C  0.11781753  0.02670234  0.80852123    -0.29900
H619        H  0.13943518  0.09283409  0.80841795     0.14300
H620        H  0.09046555  0.49469010  0.80929132     0.14900
C621        C  0.24175197  0.48956662  0.75082977    -0.14700
C622        C  0.22953484  0.45977472  0.73769850    -0.29900
H623        H  0.25503413  0.52094892  0.74636230     0.14300
H624        H  0.21601847  0.42851962  0.74218467     0.14900
C625        C  0.22461617  0.17488065  0.36476014    -0.14700
C626        C  0.22438878  0.13389239  0.37219743    -0.29900
H627        H  0.22502950  0.20357574  0.37420409     0.14300
H628        H  0.22714370  0.10501936  0.36295123     0.14900
C629        C  0.25950955  0.25550164  0.12203282    -0.14700
C630        C  0.25944227  0.29664850  0.11474524    -0.29900
H631        H  0.25905630  0.22700324  0.11248129     0.14300
H632        H  0.25668714  0.32527362  0.12413521     0.14900
C633        C  0.23696158  0.20067512  0.23649084    -0.14700
C634        C  0.24756072  0.22924795  0.25035259    -0.29900
H635        H  0.22380783  0.16868178  0.24016425     0.14300
H636        H  0.26070861  0.26124316  0.24667940     0.14900
C637        C  0.50254270  0.13113797  0.36570312    -0.14700
C638        C  0.50131543  0.17311036  0.37221416    -0.29900
H639        H  0.50081933  0.10368568  0.37567922     0.14300
H640        H  0.49989520  0.20044352  0.36216924     0.14900
C641        C  0.34890601  0.14267542  0.30712876    -0.14700
C642        C  0.38425040  0.16576182  0.30746821    -0.29900
H643        H  0.34970021  0.10668326  0.30653580     0.14300
H644        H  0.38363967  0.20176747  0.30727203     0.14900
C645        C  0.48209435  0.04902183  0.12242675    -0.14700
C646        C  0.48074987  0.00730847  0.11561532    -0.29900
H647        H  0.48361173  0.07672625  0.11256779     0.14300
H648        H  0.48238203  0.97941187  0.12535514     0.14900
C649        C  0.37220941  0.12924061  0.17905160    -0.14700
C650        C  0.36543608  0.17318428  0.17906423    -0.29900
H651        H  0.34637886  0.10632100  0.17936586     0.14300
H652        H  0.39136039  0.19597991  0.17949818     0.14900
C653        C  0.49849408  0.10610925  0.23716382    -0.14700
C654        C  0.48651810  0.07737663  0.25071653    -0.29900
H655        H  0.51153970  0.13796149  0.24119894     0.14300
H656        H  0.47321848  0.04565949  0.24666169     0.14900
C657        C  0.00573313  0.38644950  0.36559848    -0.14700
C658        C  0.00458142  0.42823853  0.37227925    -0.29900
H659        H  0.00478970  0.35884450  0.37552144     0.14300
H660        H  0.00218513  0.45581011  0.36240292     0.14900
C661        C  0.11300560  0.30090612  0.30849124    -0.14700
C662        C  0.11902097  0.25686043  0.30808025    -0.29900
H663        H  0.13926829  0.32325948  0.30825895     0.14300
H664        H  0.09276134  0.23452920  0.30755122     0.14900
C665        C  0.98098882  0.29617581  0.12287378    -0.14700
C666        C  0.98275876  0.25443738  0.11616066    -0.29900
H667        H  0.98193923  0.32388057  0.11300437     0.14300
H668        H  0.98486638  0.22680164  0.12601938     0.14900
C669        C  0.10033352  0.26480405  0.18076966    -0.14700
C670        C  0.13564927  0.28787562  0.18012176    -0.29900
H671        H  0.10109989  0.22883963  0.18148850     0.14300
H672        H  0.13486697  0.32388753  0.18021609     0.14900
C673        C  0.99724783  0.35485082  0.23734500    -0.14700
C674        C  0.98567290  0.32697705  0.25126651    -0.29900
H675        H  0.01071774  0.38675115  0.24098736     0.14300
H676        H  0.97226336  0.29503884  0.24764031     0.14900
C677        C  0.72388943  0.42352514  0.36472456    -0.14700
C678        C  0.72386688  0.38175000  0.37127930    -0.29900
H679        H  0.72530934  0.45111270  0.37473555     0.14300
H680        H  0.72569578  0.35414523  0.36128724     0.14900
C681        C  0.84802954  0.39228711  0.30751280    -0.14700
C682        C  0.88324304  0.41559137  0.30778833    -0.29900
H683        H  0.84895811  0.35629440  0.30700251     0.14300
H684        H  0.88229186  0.45158551  0.30743378     0.14900
C685        C  0.61404719  0.99721233  0.30774315    -0.14700
C686        C  0.60973665  0.04160032  0.30803767    -0.29900
H687        H  0.58698980  0.97599318  0.30770814     0.14300
H688        H  0.63682596  0.06275701  0.30756067     0.14900
C689        C  0.75849676  0.05084799  0.11523282    -0.14700
C690        C  0.75826767  0.00957534  0.12240699    -0.29900
H691        H  0.75844182  0.07915101  0.12489748     0.14300
H692        H  0.75517094  0.98108716  0.11297334     0.14900
C693        C  0.64101894  0.05036450  0.18084984    -0.14700
C694        C  0.60658969  0.02552868  0.18113784    -0.29900
H695        H  0.63888743  0.08630842  0.18055152     0.14300
H696        H  0.60889666  0.98965149  0.18204731     0.14900
C697        C  0.86686389  0.42759851  0.17885096    -0.14700
C698        C  0.87219095  0.38340682  0.17887550    -0.29900
H699        H  0.89344606  0.44946697  0.17945594     0.14300
H700        H  0.84556347  0.36155544  0.17907374     0.14900
C701        C  0.74876306  0.48172620  0.25044375    -0.14700
C702        C  0.73828140  0.45386915  0.23625437    -0.29900
H703        H  0.76225197  0.51374652  0.24707245     0.14300
H704        H  0.76373870  0.00939349  0.24752804     0.14900
O705        O  0.74441071  0.96657516  0.15028484    -0.71200
O706        O  0.73882421  0.95382579  0.20769858    -0.72200
O707        O  0.68200544  0.48143220  0.17590966    -0.60800
O708        O  0.79691338  0.93102463  0.17881873    -0.69200
O709        O  0.82216075  0.48939921  0.18241176    -0.68800
O710        O  0.71026057  0.54591835  0.18388759    -0.60000
O711        O  0.76049600  0.50208224  0.21106041    -0.72500
O712        O  0.77084062  0.53348154  0.15535468    -0.71300
Cu713      Cu  0.74053569  0.95750971  0.17887740     1.04600
Cu714      Cu  0.76705059  0.51992743  0.18346300     1.04300
C715        C  0.75853122  0.50575494  0.14275179     0.95000
C716        C  0.75278164  0.98506732  0.21828918     0.94100
C717        C  0.67852311  0.52257849  0.18007362     0.86300
C718        C  0.82931787  0.95477382  0.18025402     0.92500
O719        O  0.71160930  0.89840743  0.33376983    -0.71200
O720        O  0.71610218  0.91027387  0.27698037    -0.72200
O721        O  0.77006027  0.87636492  0.30530493    -0.60800
O722        O  0.65770659  0.93378352  0.30579039    -0.69200
O723        O  0.69274154  0.51320190  0.31112336    -0.68800
O724        O  0.79836697  0.94288917  0.30876180    -0.60000
O725        O  0.75519908  0.49840372  0.28338277    -0.72500
O726        O  0.73946154  0.96514513  0.33732428    -0.71300
Cu727      Cu  0.71278138  0.90243224  0.30533101     1.04600
Cu728      Cu  0.74375291  0.97333153  0.30874127     1.04300
C729        C  0.72503049  0.92944611  0.34452175     0.95000
C730        C  0.73192280  0.94476940  0.26944310     0.94100
C731        C  0.80194682  0.90089054  0.30712913     0.86300
C732        C  0.66080732  0.48966183  0.30776769     0.92500
O733        O  0.99846322  0.84760056  0.14973306    -0.71200
O734        O  0.00740689  0.87215577  0.20579654    -0.72200
O735        O  0.05784016  0.83008298  0.17820302    -0.60800
O736        O  0.94805483  0.89020917  0.17746839    -0.69200
O737        O  0.91757532  0.82558162  0.18295968    -0.68800
O738        O  0.02804687  0.76546469  0.18450650    -0.60000
O739        O  0.97667160  0.80795058  0.21190679    -0.72500
O740        O  0.96982918  0.78216911  0.15568524    -0.71300
Cu741      Cu  0.00397600  0.86222590  0.17756810     1.04600
Cu742      Cu  0.97184198  0.79305471  0.18399203     1.04300
C743        C  0.98357674  0.81080866  0.14387650     0.95000
C744        C  0.99350119  0.84387423  0.21769992     0.94100
C745        C  0.06037952  0.78852787  0.18147267     0.86300
C746        C  0.91542231  0.86739039  0.18018618     0.92500
O747        O  0.00360200  0.87216805  0.27768470    -0.71200
O748        O  0.01065519  0.90135919  0.33339265    -0.72200
O749        O  0.06468915  0.86163382  0.30623923    -0.60800
O750        O  0.95008335  0.91138162  0.30491612    -0.69200
O751        O  0.92450153  0.84517630  0.31206373    -0.68800
O752        O  0.03902095  0.79502494  0.31253639    -0.60000
O753        O  0.98654856  0.83447958  0.34045638    -0.72500
O754        O  0.97729478  0.80611067  0.28447432    -0.71300
Cu755      Cu  0.00818646  0.88891094  0.30532051     1.04600
Cu756      Cu  0.98097635  0.81785208  0.31266862     1.04300
C757        C  0.98900655  0.83484649  0.27226040     0.95000
C758        C  0.99956054  0.87259220  0.34572151     0.94100
C759        C  0.06987981  0.82033609  0.30937256     0.86300
C760        C  0.91927807  0.88616384  0.30820195     0.92500
O761        O  0.49617579  0.59576705  0.14861466    -0.71200
O762        O  0.50777365  0.62551690  0.20424079    -0.72200
O763        O  0.55814399  0.58262055  0.17664892    -0.60800
O764        O  0.44587290  0.63843976  0.17633263    -0.69200
O765        O  0.41797595  0.57316577  0.18317200    -0.68800
O766        O  0.53025515  0.51783107  0.18433029    -0.60000
O767        O  0.47924034  0.56098102  0.21174910    -0.72500
O768        O  0.46985908  0.53002666  0.15599196    -0.71300
Cu769      Cu  0.50295386  0.61284753  0.17618924     1.04600
Cu770      Cu  0.47328514  0.54327513  0.18410213     1.04300
C771        C  0.48180020  0.55813245  0.14352907     0.95000
C772        C  0.49535548  0.59792986  0.21678220     0.94100
C773        C  0.56185891  0.54143660  0.18054804     0.86300
C774        C  0.41417298  0.61445448  0.17962346     0.92500
O775        O  0.51611126  0.65780464  0.33321153    -0.71200
O776        O  0.50898673  0.62937003  0.27697346    -0.72200
O777        O  0.45724013  0.67174667  0.30437310    -0.60800
O778        O  0.56908990  0.61566145  0.30595291    -0.69200
O779        O  0.54061896  0.55021533  0.31194037    -0.68800
O780        O  0.42880441  0.60685714  0.31145490    -0.60000
O781        O  0.47973384  0.56484532  0.28390810    -0.72500
O782        O  0.48950231  0.59174422  0.33978345    -0.71300
Cu783      Cu  0.51396765  0.64589493  0.30487787     1.04600
Cu784      Cu  0.48371202  0.57616533  0.31202307     1.04300
C785        C  0.50340177  0.62921855  0.34532625     0.95000
C786        C  0.49275939  0.59270104  0.27162265     0.94100
C787        C  0.42542727  0.64820233  0.30779675     0.86300
C788        C  0.57252380  0.57410719  0.30896442     0.92500
O789        O  0.20828937  0.79327164  0.18420059    -0.71200
O790        O  0.32076835  0.73901389  0.18212129    -0.72200
O791        O  0.26770925  0.78107652  0.15522870    -0.60800
O792        O  0.25990251  0.75129150  0.21118635    -0.69200
O793        O  0.23167696  0.68633177  0.20396554    -0.68800
O794        O  0.24183374  0.71475440  0.14836599    -0.60000
O795        O  0.29319029  0.67325644  0.17576063    -0.72500
O796        O  0.18054519  0.72807186  0.17690326    -0.71300
Cu797      Cu  0.26525121  0.76841347  0.18344891     1.04600
Cu798      Cu  0.23590214  0.69833380  0.17596783     1.04300
C799        C  0.17675172  0.76930284  0.18083619     0.95000
C800        C  0.32476542  0.69756400  0.17883594     0.94100
C801        C  0.25548202  0.75242671  0.14300258     0.86300
C802        C  0.24392437  0.71441555  0.21636509     0.92500
O803        O  0.21652810  0.65648401  0.33223491    -0.71200
O804        O  0.22712979  0.68482365  0.27626326    -0.72200
O805        O  0.27741994  0.64312304  0.30394405    -0.60800
O806        O  0.16511868  0.69787650  0.30472294    -0.69200
O807        O  0.19235024  0.76372330  0.31124258    -0.68800
O808        O  0.30499680  0.70838757  0.31124386    -0.60000
O809        O  0.25506818  0.74990189  0.28352315    -0.72500
O810        O  0.24243893  0.72279101  0.33911082    -0.71300
Cu811      Cu  0.22051250  0.66832760  0.30400693     1.04600
Cu812      Cu  0.24966852  0.73847690  0.31153691     1.04300
C813        C  0.22803940  0.68546050  0.34447218     0.95000
C814        C  0.24324316  0.72164425  0.27110593     0.94100
C815        C  0.30887073  0.66701915  0.30756408     0.86300
C816        C  0.16090470  0.73925556  0.30809592     0.92500
O817        O  0.30110291  0.96689103  0.81115912    -0.71200
O818        O  0.19119242  0.02785228  0.81179075    -0.72200
O819        O  0.24063172  0.98451857  0.83967483    -0.60800
O820        O  0.25145424  0.00923447  0.78352280    -0.69200
O821        O  0.22057359  0.94510679  0.77733649    -0.68800
O822        O  0.21203293  0.91925416  0.83326209    -0.60000
O823        O  0.16082624  0.96321060  0.80609473    -0.72500
O824        O  0.27110658  0.90246469  0.80460674    -0.71300
Cu825      Cu  0.24714011  0.99938492  0.81180240     1.04600
Cu826      Cu  0.21494680  0.93033015  0.80510106     1.04300
C827        C  0.30353224  0.92532070  0.80770427     0.95000
C828        C  0.15862290  0.00508688  0.80885749     0.94100
C829        C  0.22556785  0.94760462  0.84527816     0.86300
C830        C  0.23769853  0.98081863  0.77157755     0.92500
O831        O  0.22119511  0.93939270  0.70529464    -0.71200
O832        O  0.22986890  0.96297504  0.64906438    -0.72200
O833        O  0.28229531  0.92500797  0.67691602    -0.60800
O834        O  0.16831281  0.97672732  0.67760475    -0.69200
O835        O  0.20157106  0.54434423  0.68292220    -0.68800
O836        O  0.30895883  0.99167727  0.68222538    -0.60000
O837        O  0.26076174  0.52434666  0.65464409    -0.72500
O838        O  0.24849422  0.00553015  0.71118059    -0.71300
Cu839      Cu  0.22451073  0.94869450  0.67698517     1.04600
Cu840      Cu  0.25731564  0.51561664  0.68295350     1.04300
C841        C  0.23350733  0.96886504  0.71710201     0.95000
C842        C  0.24332777  0.00036022  0.64320698     0.94100
C843        C  0.31357641  0.95006860  0.67945850     0.86300
C844        C  0.16892039  0.52175957  0.67999742     0.92500
O845        O  0.53555410  0.80717044  0.81227541    -0.71200
O846        O  0.42341792  0.86350301  0.81110478    -0.72200
O847        O  0.47425906  0.81963744  0.78402245    -0.60800
O848        O  0.48465202  0.85097805  0.83951780    -0.69200
O849        O  0.51154246  0.91633632  0.83196079    -0.68800
O850        O  0.50309999  0.88385930  0.77626009    -0.60000
O851        O  0.45185128  0.92791641  0.80326617    -0.72500
O852        O  0.56392854  0.87205126  0.80518691    -0.71300
Cu853      Cu  0.47852890  0.83306450  0.81200809     1.04600
Cu854      Cu  0.50870909  0.90224544  0.80387251     1.04300
C855        C  0.56745865  0.83083038  0.80895886     0.95000
C856        C  0.42002242  0.90461024  0.80700208     0.94100
C857        C  0.48675976  0.84691684  0.77137519     0.86300
C858        C  0.49895184  0.88872455  0.84449735     0.92500
O859        O  0.52010052  0.77092718  0.68416570    -0.71200
O860        O  0.40782614  0.82642076  0.68330102    -0.72200
O861        O  0.45927517  0.78283679  0.65596052    -0.60800
O862        O  0.46967930  0.81443146  0.71166414    -0.69200
O863        O  0.49783613  0.87895981  0.70383751    -0.68800
O864        O  0.48559224  0.84839634  0.64830594    -0.60000
O865        O  0.43545684  0.89160863  0.67609842    -0.72500
O866        O  0.54798113  0.83559500  0.67630140    -0.71300
Cu867      Cu  0.46314818  0.79644534  0.68405981     1.04600
Cu868      Cu  0.49265932  0.86590955  0.67584310     1.04300
C869        C  0.55172479  0.79447047  0.68034854     0.95000
C870        C  0.40386261  0.86766598  0.67967839     0.94100
C871        C  0.47119348  0.81065888  0.64336861     0.86300
C872        C  0.48590405  0.85145508  0.71651321     0.92500
O873        O  0.73409616  0.71945587  0.64905384    -0.71200
O874        O  0.72284314  0.69257789  0.70490589    -0.72200
O875        O  0.67227847  0.73412065  0.67729953    -0.60800
O876        O  0.78470149  0.67824838  0.67675809    -0.69200
O877        O  0.81268735  0.74375504  0.68318335    -0.68800
O878        O  0.70024468  0.79924611  0.68446455    -0.60000
O879        O  0.75130372  0.75748975  0.71197342    -0.72500
O880        O  0.76062047  0.78544357  0.65596611    -0.71300
Cu881      Cu  0.72753713  0.70381342  0.67676220     1.04600
Cu882      Cu  0.75728368  0.77371629  0.68417224     1.04300
C883        C  0.74842107  0.75685057  0.64370578     0.95000
C884        C  0.73513099  0.72080868  0.71725759     0.94100
C885        C  0.66858673  0.77552921  0.68093165     0.86300
C886        C  0.81646787  0.70231909  0.67977525     0.92500
O887        O  0.68817950  0.77076087  0.81293575    -0.71200
O888        O  0.80028357  0.71442896  0.81145037    -0.72200
O889        O  0.74893261  0.75644618  0.78440440    -0.60800
O890        O  0.73975357  0.72883412  0.84030159    -0.69200
O891        O  0.71313447  0.66284949  0.83348599    -0.68800
O892        O  0.71996920  0.69173903  0.77742403    -0.60000
O893        O  0.77193896  0.64945360  0.80432356    -0.72500
O894        O  0.65987852  0.70528402  0.80674300    -0.71300
Cu895      Cu  0.74522064  0.74489718  0.81253976     1.04600
Cu896      Cu  0.71510530  0.67511430  0.80524451     1.04300
C897        C  0.65631432  0.74681464  0.80997739     0.95000
C898        C  0.80374493  0.67311213  0.80759325     0.94100
C899        C  0.73612269  0.72839859  0.77209289     0.86300
C900        C  0.72602280  0.69120332  0.84570007     0.92500
O901        O  0.02072808  0.52094959  0.68364315    -0.71200
O902        O  0.90905987  0.57719540  0.68201892    -0.72200
O903        O  0.96109940  0.53298889  0.65502051    -0.60800
O904        O  0.96997517  0.56514285  0.71072940    -0.69200
O905        O  0.99923575  0.62916722  0.70299132    -0.68800
O906        O  0.98797640  0.59835144  0.64747015    -0.60000
O907        O  0.93743904  0.64217780  0.67509307    -0.72500
O908        O  0.04954551  0.58512661  0.67573708    -0.71300
Cu909      Cu  0.96410534  0.54688855  0.68312996     1.04600
Cu910      Cu  0.99449511  0.61598358  0.67502341     1.04300
C911        C  0.05268007  0.54400115  0.67988560     0.95000
C912        C  0.90556497  0.61854124  0.67854799     0.94100
C913        C  0.97375875  0.56057059  0.64248204     0.86300
C914        C  0.98656967  0.60194950  0.71562219     0.92500
O915        O  0.03631037  0.55692493  0.81089044    -0.71200
O916        O  0.92407933  0.61311257  0.81049430    -0.72200
O917        O  0.97427710  0.56987582  0.78302471    -0.60800
O918        O  0.98600804  0.60005833  0.83843866    -0.69200
O919        O  0.01237482  0.66585800  0.83116096    -0.68800
O920        O  0.00280862  0.63434677  0.77538731    -0.60000
O921        O  0.95201901  0.67785735  0.80277781    -0.72500
O922        O  0.06419652  0.62217105  0.80399889    -0.71300
Cu923      Cu  0.97920171  0.58274696  0.81098469     1.04600
Cu924      Cu  0.00892382  0.65229177  0.80302920     1.04300
C925        C  0.06802643  0.58089163  0.80760239     0.95000
C926        C  0.92039986  0.65429601  0.80658006     0.94100
C927        C  0.98653281  0.59741093  0.77043931     0.86300
C928        C  0.00041799  0.63763443  0.84356594     0.92500
O929        O  0.73163859  0.85520397  0.59062067    -0.71200
O930        O  0.71992658  0.88111469  0.53469038    -0.72200
O931        O  0.66979684  0.83864616  0.56253386    -0.60800
O932        O  0.78174104  0.89723942  0.56250617    -0.69200
O933        O  0.81022614  0.83186257  0.55622085    -0.68800
O934        O  0.69925927  0.77417530  0.55548780    -0.60000
O935        O  0.74946222  0.81661167  0.52780925    -0.72500
O936        O  0.75920155  0.78967245  0.58373672    -0.71300
Cu937      Cu  0.72474476  0.87035388  0.56284897     1.04600
Cu938      Cu  0.75559206  0.80091422  0.55555673     1.04300
C939        C  0.74670675  0.81820747  0.59599418     0.95000
C940        C  0.73288989  0.85292551  0.52242722     0.94100
C941        C  0.66705956  0.79709559  0.55895842     0.86300
C942        C  0.81367341  0.87340393  0.55937251     0.92500
O943        O  0.80048125  0.85443580  0.42773035    -0.71200
O944        O  0.68795086  0.79911985  0.42787392    -0.72200
O945        O  0.73916333  0.83817639  0.39971376    -0.60800
O946        O  0.74922024  0.81499209  0.45573457    -0.69200
O947        O  0.72061096  0.88030835  0.46202798    -0.68800
O948        O  0.71308535  0.90491445  0.40565549    -0.60000
O949        O  0.66022003  0.86527614  0.43332086    -0.72500
O950        O  0.77255593  0.92004241  0.43418143    -0.71300
Cu951      Cu  0.74516408  0.82438877  0.42753886     1.04600
Cu952      Cu  0.71557539  0.89491517  0.43403811     1.04300
C953        C  0.80417197  0.89600433  0.43095522     0.95000
C954        C  0.65631618  0.82362652  0.43056193     0.94100
C955        C  0.72517903  0.87521152  0.39383017     0.86300
C956        C  0.73648504  0.84388274  0.46773070     0.92500
O957        O  0.03395263  0.51664120  0.42719561    -0.71200
O958        O  0.92329667  0.95722278  0.42652048    -0.72200
O959        O  0.97205473  0.00104186  0.45413815    -0.60800
O960        O  0.98463505  0.97341216  0.39832112    -0.69200
O961        O  0.01301246  0.90857016  0.40540014    -0.68800
O962        O  0.00216223  0.93713562  0.46121912    -0.60000
O963        O  0.95284174  0.89308099  0.43372839    -0.72500
O964        O  0.06322814  0.95321260  0.43279839    -0.71300
Cu965      Cu  0.97730480  0.98951586  0.42602621     1.04600
Cu966      Cu  0.00898869  0.92079545  0.43353375     1.04300
C967        C  0.06563239  0.99482708  0.42961443     0.95000
C968        C  0.92062596  0.91587285  0.43027190     0.94100
C969        C  0.98500799  0.97336623  0.46647401     0.86300
C970        C  0.99995540  0.93629226  0.39307640     0.92500
O971        O  0.99707771  0.93784786  0.53350842    -0.71200
O972        O  0.98883203  0.96867648  0.58914737    -0.72200
O973        O  0.93540381  0.92920485  0.56199375    -0.60800
O974        O  0.05074259  0.97670347  0.56046418    -0.69200
O975        O  0.02716258  0.53540140  0.55425762    -0.68800
O976        O  0.91056439  0.99595939  0.55547601    -0.60000
O977        O  0.96604179  0.52480645  0.58283129    -0.72500
O978        O  0.97181608  0.00408920  0.52634594    -0.71300
Cu979      Cu  0.99381055  0.95079745  0.56156735     1.04600
Cu980      Cu  0.96778551  0.02213416  0.55394668     1.04300
C981        C  0.98593333  0.96634007  0.52113639     0.95000
C982        C  0.97662312  0.00715334  0.59435070     0.94100
C983        C  0.90480550  0.95484758  0.55895096     0.86300
C984        C  0.05806462  0.51026727  0.55738083     0.92500
O985        O  0.21277464  0.64645933  0.46083927    -0.71200
O986        O  0.21019542  0.65969384  0.40411395    -0.72200
O987        O  0.15529554  0.62375206  0.43181694    -0.60800
O988        O  0.26757734  0.68105606  0.43285805    -0.69200
O989        O  0.29611732  0.61469298  0.42916583    -0.68800
O990        O  0.18499023  0.55779790  0.42886168    -0.60000
O991        O  0.23811976  0.59303945  0.40033543    -0.72500
O992        O  0.24258434  0.58060904  0.45763791    -0.71300
Cu993      Cu  0.21035748  0.65501012  0.43253162     1.04600
Cu994      Cu  0.24143531  0.58419187  0.42888597     1.04300
C995        C  0.22836995  0.61176650  0.46823703     0.95000
C996        C  0.22410612  0.62899111  0.39326632     0.94100
C997        C  0.15258696  0.58159693  0.43025432     0.86300
C998        C  0.29955876  0.65666272  0.43103549     0.92500
O999        O  0.20743144  0.50014949  0.55418695    -0.71200
O1000       O  0.32034859  0.55693348  0.55575125    -0.72200
O1001       O  0.26481925  0.52022502  0.58309981    -0.60800
O1002       O  0.26290902  0.53504534  0.52647024    -0.69200
O1003       O  0.23339425  0.60100649  0.52982289    -0.68800
O1004       O  0.23724799  0.58700466  0.58706319    -0.60000
O1005       O  0.29068487  0.62282892  0.55889743    -0.72500
O1006       O  0.17936712  0.56667506  0.55806561    -0.71300
Cu1007     Cu  0.26497633  0.52580256  0.55472830     1.04600
Cu1008     Cu  0.23421534  0.59669530  0.55857393     1.04300
C1009       C  0.17559621  0.52477509  0.55610684     0.95000
C1010       C  0.32310786  0.59906983  0.55756487     0.94100
C1011       C  0.25099832  0.55080744  0.59401836     0.86300
C1012       C  0.24755631  0.56994841  0.51915348     0.92500
O1013       O  0.50207613  0.68619685  0.53415292    -0.71200
O1014       O  0.48876144  0.71087718  0.59036638    -0.72200
O1015       O  0.44138423  0.66598393  0.56199137    -0.60800
O1016       O  0.54968856  0.73070807  0.56225456    -0.69200
O1017       O  0.51799991  0.79394297  0.55558836    -0.68800
O1018       O  0.40955596  0.72950876  0.55598358    -0.60000
O1019       O  0.45826655  0.77483219  0.58374006    -0.72500
O1020       O  0.46985089  0.74923657  0.52769361    -0.71300
Cu1021     Cu  0.49658515  0.69623053  0.56244568     1.04600
Cu1022     Cu  0.46270704  0.76400437  0.55552354     1.04300
C1023       C  0.48798489  0.71387185  0.52207022     0.95000
C1024       C  0.47220633  0.74719372  0.59588724     0.94100
C1025       C  0.40833769  0.68768887  0.55880875     0.86300
C1026       C  0.55100127  0.77235286  0.55891669     0.92500
O1027       O  0.50929598  0.66072148  0.40553710    -0.71200
O1028       O  0.50009127  0.68644955  0.46169764    -0.72200
O1029       O  0.44787913  0.64777471  0.43380442    -0.60800
O1030       O  0.56173874  0.69981100  0.43331023    -0.69200
O1031       O  0.53515424  0.76615738  0.42745492    -0.68800
O1032       O  0.42156476  0.71390711  0.42726535    -0.60000
O1033       O  0.47305155  0.75233522  0.45537522    -0.72500
O1034       O  0.48411587  0.72739869  0.39909996    -0.71300
Cu1035     Cu  0.50569740  0.67138781  0.43380996     1.04600
Cu1036     Cu  0.47756482  0.74226436  0.42705478     1.04300
C1037       C  0.49817017  0.68998075  0.39345967     0.95000
C1038       C  0.48486406  0.72330596  0.46739637     0.94100
C1039       C  0.41680717  0.67262908  0.43067453     0.86300
C1040       C  0.56633411  0.74129650  0.43041503     0.92500
O1041       O  0.21073935  0.91806018  0.90469068    -0.71200
O1042       O  0.21500647  0.90359220  0.96107211    -0.72200
O1043       O  0.26837055  0.94088181  0.93313838    -0.60800
O1044       O  0.15794613  0.87794820  0.93233276    -0.69200
O1045       O  0.19030221  0.81362790  0.92881441    -0.68800
O1046       O  0.29879894  0.87564093  0.92910423    -0.60000
O1047       O  0.24694773  0.83894982  0.95770905    -0.72500
O1048       O  0.24114313  0.85289517  0.90026105    -0.71300
Cu1049     Cu  0.21181429  0.91231025  0.93294517     1.04600
Cu1050     Cu  0.24537506  0.84298176  0.92884018     1.04300
C1051       C  0.22563167  0.88857332  0.89354658     0.95000
C1052       C  0.23179860  0.86953597  0.96838149     0.94100
C1053       C  0.30109318  0.91763741  0.93110880     0.86300
C1054       C  0.15696691  0.83567370  0.93052718     0.92500
O1055       O  0.20798403  0.76202333  0.05452671    -0.71200
O1056       O  0.32324726  0.81395356  0.05587611    -0.72200
O1057       O  0.26693623  0.77953777  0.08333583    -0.60800
O1058       O  0.26506850  0.79372070  0.02686688    -0.69200
O1059       O  0.23777240  0.86082744  0.03005078    -0.68800
O1060       O  0.24131282  0.84708460  0.08755033    -0.60000
O1061       O  0.29550266  0.88077776  0.05914409    -0.72500
O1062       O  0.18244357  0.82971288  0.05839720    -0.71300
Cu1063     Cu  0.26677634  0.78495136  0.05503608     1.04600
Cu1064     Cu  0.23836719  0.85696422  0.05891801     1.04300
C1065       C  0.17705471  0.78811932  0.05625235     0.95000
C1066       C  0.32719490  0.85601433  0.05762453     0.94100
C1067       C  0.25443034  0.81045263  0.09440493     0.86300
C1068       C  0.25096576  0.82906121  0.01946261     0.92500
O1069       O  0.80787454  0.60318704  0.92686973    -0.71200
O1070       O  0.69370375  0.55139315  0.92655875    -0.72200
O1071       O  0.74546411  0.59115998  0.89855448    -0.60800
O1072       O  0.75544747  0.56432099  0.95471236    -0.69200
O1073       O  0.72865736  0.63023193  0.96150997    -0.68800
O1074       O  0.72054259  0.65774971  0.90565929    -0.60000
O1075       O  0.66740188  0.61772199  0.93299819    -0.72500
O1076       O  0.78168588  0.66921160  0.93400131    -0.71300
Cu1077     Cu  0.75152290  0.57519476  0.92640980     1.04600
Cu1078     Cu  0.72364060  0.64599499  0.93378665     1.04300
C1079       C  0.81276166  0.64433979  0.93063543     0.95000
C1080       C  0.66257586  0.57634254  0.92970750     0.94100
C1081       C  0.73166437  0.62886545  0.89328538     0.86300
C1082       C  0.74362095  0.59322065  0.96695287     0.92500
O1083       O  0.73949070  0.60579339  0.09011838    -0.71200
O1084       O  0.72675331  0.63084779  0.03393403    -0.72200
O1085       O  0.67812707  0.58754102  0.06207362    -0.60800
O1086       O  0.78765142  0.64977733  0.06176107    -0.69200
O1087       O  0.81828169  0.58559389  0.05533888    -0.68800
O1088       O  0.70882575  0.52373540  0.05504126    -0.60000
O1089       O  0.75787543  0.56714870  0.02717022    -0.72500
O1090       O  0.76892458  0.54132064  0.08307580    -0.71300
Cu1091     Cu  0.73191570  0.62075033  0.06223775     1.04600
Cu1092     Cu  0.76462087  0.55230638  0.05491784     1.04300
C1093       C  0.75562448  0.56920638  0.09541917     0.95000
C1094       C  0.74038909  0.60284586  0.02171019     0.94100
C1095       C  0.67617942  0.54596753  0.05853656     0.86300
C1096       C  0.82027208  0.62733062  0.05840533     0.92500
O1097       O  0.50975823  0.92282521  0.90404875    -0.71200
O1098       O  0.50335773  0.94794896  0.96010139    -0.72200
O1099       O  0.44957709  0.91024879  0.93277279    -0.60800
O1100       O  0.56384501  0.96160454  0.93122045    -0.69200
O1101       O  0.53736098  0.02819155  0.92582356    -0.68800
O1102       O  0.42314602  0.97654792  0.92667411    -0.60000
O1103       O  0.47634079  0.01415084  0.95440723    -0.72500
O1104       O  0.48463076  0.98963419  0.89783404    -0.71300
Cu1105     Cu  0.50759464  0.93341437  0.93223732     1.04600
Cu1106     Cu  0.47948988  0.00450780  0.92594505     1.04300
C1107       C  0.49802107  0.95198957  0.89207993     0.95000
C1108       C  0.48842732  0.98460440  0.96615152     0.94100
C1109       C  0.41840227  0.93524323  0.93003323     0.86300
C1110       C  0.56856988  0.00313544  0.92842809     0.92500
O1111       O  0.52742891  0.54385101  0.05575292    -0.71200
O1112       O  0.41574010  0.98473979  0.05566620    -0.72200
O1113       O  0.46786303  0.52455156  0.08389806    -0.60800
O1114       O  0.47472771  0.00568044  0.02690633    -0.69200
O1115       O  0.50616880  0.94152543  0.03209867    -0.68800
O1116       O  0.49640373  0.96181267  0.08874880    -0.60000
O1117       O  0.44678496  0.92016139  0.06039846    -0.72500
O1118       O  0.55585808  0.98235363  0.06030522    -0.71300
Cu1119     Cu  0.47165299  0.51514631  0.05562029     1.04600
Cu1120     Cu  0.50235509  0.94920104  0.06058108     1.04300
C1121       C  0.56017082  0.52154700  0.05875662     0.95000
C1122       C  0.41397150  0.94275327  0.05798916     0.94100
C1123       C  0.48113711  0.99821565  0.09492293     0.86300
C1124       C  0.49211515  0.97052977  0.02058931     0.92500
O1125       O  0.93236065  0.70409811  0.92908516    -0.71200
O1126       O  0.04087642  0.76618880  0.92882705    -0.72200
O1127       O  0.98868689  0.73002209  0.90001553    -0.60800
O1128       O  0.98547921  0.73766057  0.95778196    -0.69200
O1129       O  0.01750670  0.67276049  0.95930397    -0.68800
O1130       O  0.01945412  0.66465022  0.90267280    -0.60000
O1131       O  0.07336524  0.70162706  0.93053950    -0.72500
O1132       O  0.96297042  0.63856651  0.93123188    -0.71300
Cu1133     Cu  0.98578583  0.73680725  0.92886047     1.04600
Cu1134     Cu  0.01954014  0.66720455  0.93099431     1.04300
C1135       C  0.93015246  0.66194484  0.93019626     0.95000
C1136       C  0.07426946  0.74403866  0.92970317     0.94100
C1137       C  0.00391731  0.69504973  0.89235431     0.86300
C1138       C  0.00099652  0.70600377  0.96756538     0.92500
O1139       O  0.99479819  0.71850762  0.08719888    -0.71200
O1140       O  0.99652560  0.70891552  0.02945259    -0.72200
O1141       O  0.05310916  0.73706050  0.05779325    -0.60800
O1142       O  0.93930552  0.68772883  0.05881827    -0.69200
O1143       O  0.91233169  0.75514737  0.05704752    -0.68800
O1144       O  0.02817425  0.80525927  0.05518990    -0.60000
O1145       O  0.96973912  0.77648877  0.02773142    -0.72500
O1146       O  0.97011256  0.78673257  0.08425948    -0.71300
Cu1147     Cu  0.99679058  0.71062548  0.05838839     1.04600
Cu1148     Cu  0.96915656  0.78325197  0.05598274     1.04300
C1149       C  0.98252533  0.75496700  0.09471614     0.95000
C1150       C  0.98332180  0.74162245  0.01957588     0.94100
C1151       C  0.05886129  0.77872338  0.05629116     0.86300
C1152       C  0.90788649  0.71306026  0.05815355     0.92500
C1153       C  0.00021403  0.70680265  0.98860769    -0.14700
C1154       C  0.98355817  0.74033507  0.99854231    -0.29900
H1155       H  0.01388601  0.67900436  0.99609871     0.14300
H1156       H  0.97021299  0.76830418  0.99104227     0.14900
C1157       C  0.48459408  0.99298724  0.98685814    -0.14700
C1158       C  0.49631105  0.96285934  0.99986469    -0.29900
H1159       H  0.47151155  0.02442695  0.99147506     0.14300
H1160       H  0.50962909  0.93155203  0.99521918     0.14900
C1161       C  0.63616279  0.52283115  0.05853772    -0.14700
C1162       C  0.60015421  0.54476146  0.05881214    -0.29900
H1163       H  0.63639437  0.48683001  0.05790233     0.14300
H1164       H  0.59990124  0.58078332  0.05868312     0.14900
C1165       C  0.86621352  0.69326473  0.05868112    -0.14700
C1166       C  0.86098224  0.64897078  0.05802684    -0.29900
H1167       H  0.83968211  0.71516398  0.05940388     0.14300
H1168       H  0.88766739  0.62737508  0.05681538     0.14900
C1169       C  0.85429393  0.66419736  0.93102952    -0.14700
C1170       C  0.88927517  0.64022858  0.93014041    -0.29900
H1171       H  0.85598024  0.70008283  0.93229717     0.14300
H1172       H  0.88789871  0.60426442  0.92940806     0.14900
C1173       C  0.62049267  0.55770941  0.92954386    -0.14700
C1174       C  0.61325436  0.51379139  0.92896750    -0.29900
H1175       H  0.59482367  0.58076875  0.93035220     0.14300
H1176       H  0.63890332  0.49064716  0.92885907     0.14900
C1177       C  0.74773723  0.58346899  0.98750694    -0.14700
C1178       C  0.73575400  0.61229572  0.00115645    -0.29900
H1179       H  0.76119114  0.55185305  0.99147570     0.14300
H1180       H  0.72206580  0.64379543  0.99718757     0.14900
C1181       C  0.13475320  0.77003522  0.05588298    -0.14700
C1182       C  0.10124933  0.79653079  0.05601310    -0.29900
H1183       H  0.13112675  0.73421995  0.05552323     0.14300
H1184       H  0.10492731  0.83234585  0.05600357     0.14900
C1185       C  0.36861104  0.87642295  0.05787901    -0.14700
C1186       C  0.37336809  0.92082458  0.05786710    -0.29900
H1187       H  0.39539761  0.85483588  0.05783899     0.14300
H1188       H  0.34644015  0.94219118  0.05742355     0.14900
C1189       C  0.34194753  0.93935601  0.93088168    -0.14700
C1190       C  0.37692343  0.91533773  0.93067112    -0.29900
H1191       H  0.34331788  0.97535377  0.93090392     0.14300
H1192       H  0.37528848  0.87936782  0.93123071     0.14900
C1193       C  0.11694810  0.81220076  0.93041448    -0.14700
C1194       C  0.11427371  0.76753637  0.92977505    -0.29900
H1195       H  0.08909714  0.83213513  0.93102248     0.14300
H1196       H  0.14213117  0.74758162  0.92948580     0.14900
C1197       C  0.23328291  0.86660542  0.98938008    -0.14700
C1198       C  0.25011961  0.83212633  0.99845526    -0.29900
H1199       H  0.21992356  0.89370199  0.99758977     0.14300
H1200       H  0.26320551  0.80485345  0.99026106     0.14900
C1201       C  0.49286280  0.70437635  0.50149308    -0.14700
C1202       C  0.48043518  0.73289435  0.48798394    -0.29900
H1203       H  0.50712704  0.67315404  0.49739025     0.14300
H1204       H  0.46646956  0.76426386  0.49209828     0.14900
C1205       C  0.36807172  0.66497362  0.55832550    -0.14700
C1206       C  0.36407951  0.62051231  0.55819368    -0.29900
H1207       H  0.34078734  0.68576382  0.55762700     0.14300
H1208       H  0.39127631  0.59953089  0.55834724     0.14900
C1209       C  0.34074886  0.67734276  0.43092840    -0.14700
C1210       C  0.37533476  0.65281333  0.43098518    -0.29900
H1211       H  0.34265229  0.71331266  0.43090802     0.14300
H1212       H  0.37331218  0.61687873  0.43160065     0.14900
C1213       C  0.22974133  0.60845049  0.48924027    -0.14700
C1214       C  0.24634254  0.57350129  0.49815927    -0.29900
H1215       H  0.21680060  0.63560843  0.49755555     0.14300
H1216       H  0.25925515  0.54634028  0.48983495     0.14900
C1217       C  0.09979922  0.52948089  0.55663075    -0.14700
C1218       C  0.13416569  0.50452548  0.55634799    -0.29900
H1219       H  0.10218884  0.56539214  0.55601804     0.14300
H1220       H  0.13188760  0.46857810  0.55634615     0.14900
C1221       C  0.10720776  0.51601963  0.43050090    -0.14700
C1222       C  0.11159990  0.56037434  0.43001123    -0.29900
H1223       H  0.13328988  0.99510809  0.43078443     0.14300
H1224       H  0.08458649  0.58161268  0.42963251     0.14900
C1225       C  0.97986972  0.98393927  0.48690530    -0.14700
C1226       C  0.99013664  0.95524632  0.50070654    -0.29900
H1227       H  0.96721533  0.01618033  0.49064952     0.14300
H1228       H  0.00253547  0.92288874  0.49696301     0.14900
C1229       C  0.84495992  0.91725129  0.43079045    -0.14700
C1230       C  0.88013109  0.89388303  0.43059076    -0.29900
H1231       H  0.84599273  0.95325330  0.43112539     0.14300
H1232       H  0.87925558  0.85789766  0.43105093     0.14900
C1233       C  0.60817709  0.76028113  0.43048025    -0.14700
C1234       C  0.61465009  0.80427399  0.43042995    -0.29900
H1235       H  0.63414920  0.73759213  0.43093626     0.14300
H1236       H  0.58861832  0.82692576  0.43064330     0.14900
C1237       C  0.62684244  0.77435968  0.55894411    -0.14700
C1238       C  0.59077474  0.79613399  0.55895848    -0.29900
H1239       H  0.62706026  0.73833970  0.55849269     0.14300
H1240       H  0.59037023  0.83214133  0.55861080     0.14900
C1241       C  0.85533472  0.89297151  0.55942481    -0.14700
C1242       C  0.86240552  0.93689782  0.55934234    -0.29900
H1243       H  0.88119604  0.87010350  0.55899353     0.14300
H1244       H  0.83674162  0.95999461  0.55900731     0.14900
C1245       C  0.74062410  0.83435789  0.48827047    -0.14700
C1246       C  0.72839635  0.86289250  0.50192573    -0.29900
H1247       H  0.75432442  0.80285719  0.49222893     0.14300
H1248       H  0.71462764  0.89438318  0.49800907     0.14900
C1249       C  0.00345584  0.64731138  0.86409805    -0.14700
C1250       C  0.00275332  0.68858009  0.87145908    -0.29900
H1251       H  0.00390363  0.61895301  0.87363313     0.14300
H1252       H  0.99897703  0.71712573  0.86221674     0.14900
C1253       C  0.97488484  0.50694109  0.61573327    -0.14700
C1254       C  0.97269338  0.54909166  0.62200095    -0.29900
H1255       H  0.97734747  0.47999150  0.62592023     0.14300
H1256       H  0.97327627  0.57616461  0.61180685     0.14900
C1257       C  0.98130851  0.58584355  0.75009867    -0.14700
C1258       C  0.99171778  0.61366104  0.73595544    -0.29900
H1259       H  0.96824335  0.55359912  0.74671191     0.14300
H1260       H  0.00483401  0.64588582  0.73933382     0.14900
C1261       C  0.72580971  0.68073732  0.86626293    -0.14700
C1262       C  0.72875705  0.63890421  0.87269947    -0.29900
H1263       H  0.72633919  0.70827208  0.87631911     0.14300
H1264       H  0.73124323  0.61157744  0.86259616     0.14900
C1265       C  0.87956124  0.67551994  0.80664405    -0.14700
C1266       C  0.84455842  0.65186234  0.80707546    -0.29900
H1267       H  0.87830860  0.71149171  0.80610114     0.14300
H1268       H  0.84577113  0.61586581  0.80677343     0.14900
C1269       C  0.75016455  0.76678797  0.62313843    -0.14700
C1270       C  0.74905854  0.80855089  0.61657856    -0.29900
H1271       H  0.74913186  0.73912370  0.61315702     0.14300
H1272       H  0.74686291  0.83613709  0.62656593     0.14900
C1273       C  0.86407820  0.63853432  0.67863096    -0.14700
C1274       C  0.85810006  0.68260382  0.67926877    -0.29900
H1275       H  0.83775514  0.61626171  0.67882850     0.14300
H1276       H  0.88441001  0.70485374  0.67986268     0.14900
C1277       C  0.73015218  0.71034804  0.73772713    -0.14700
C1278       C  0.74066303  0.73899148  0.75161729    -0.29900
H1279       H  0.71731209  0.67821992  0.74142763     0.14300
H1280       H  0.75354256  0.77109911  0.74791227     0.14900
C1281       C  0.47009377  0.75746881  0.61648823    -0.14700
C1282       C  0.46892499  0.79953871  0.62287866    -0.29900
H1283       H  0.47286013  0.73032514  0.62656053     0.14300
H1284       H  0.46955723  0.82672809  0.61273910     0.14900
C1285       C  0.59262586  0.77325420  0.68054237    -0.14700
C1286       C  0.62770011  0.79683624  0.68087361    -0.29900
H1287       H  0.59382400  0.73726583  0.68086695     0.14300
H1288       H  0.62646460  0.83282011  0.68141082     0.14900
C1289       C  0.50047338  0.89992281  0.86498168    -0.14700
C1290       C  0.49946167  0.94196902  0.87143084    -0.29900
H1291       H  0.49956874  0.87265500  0.87507703     0.14300
H1292       H  0.49730028  0.96926880  0.86140403     0.14900
C1293       C  0.60896824  0.81088818  0.80945157    -0.14700
C1294       C  0.61481543  0.76680283  0.81015112    -0.29900
H1295       H  0.63534818  0.83301355  0.80865796     0.14300
H1296       H  0.58844549  0.74459429  0.81014596     0.14900
C1297       C  0.48162144  0.83513907  0.75103541    -0.14700
C1298       C  0.49140750  0.86312252  0.73684543    -0.29900
H1299       H  0.46887080  0.80272352  0.74769243     0.14300
H1300       H  0.50410638  0.89556397  0.74018536     0.14900
C1301       C  0.24970336  0.50296730  0.62226764    -0.14700
C1302       C  0.25043656  0.54398900  0.61483271    -0.29900
H1303       H  0.24469773  0.97976534  0.61310634     0.14300
H1304       H  0.24832349  0.57284099  0.62413229     0.14900
C1305       C  0.12878378  0.54460280  0.67981924    -0.14700
C1306       C  0.09315472  0.52202331  0.68022826    -0.29900
H1307       H  0.12855453  0.58062097  0.67965209     0.14300
H1308       H  0.09353665  0.48607501  0.68118659     0.14900
C1309       C  0.36214760  0.88713248  0.67962655    -0.14700
C1310       C  0.35554537  0.93113367  0.67922113    -0.29900
H1311       H  0.33613118  0.86451400  0.68041442     0.14300
H1312       H  0.38151311  0.95388031  0.67917562     0.14900
C1313       C  0.22405307  0.93805675  0.86585376    -0.14700
C1314       C  0.22540509  0.89649687  0.87277737    -0.29900
H1315       H  0.22433444  0.96616326  0.87561852     0.14300
H1316       H  0.22852105  0.86838002  0.86312661     0.14900
C1317       C  0.34396360  0.90310119  0.80742398    -0.14700
C1318       C  0.37933068  0.92617237  0.80679490    -0.29900
H1319       H  0.34461621  0.86708696  0.80748042     0.14300
H1320       H  0.37852885  0.96212463  0.80592003     0.14900
C1321       C  0.10973497  0.56143573  0.80803209    -0.14700
C1322       C  0.11638585  0.51749389  0.80907197    -0.29900
H1323       H  0.13574919  0.58402338  0.80708159     0.14300
H1324       H  0.09103017  0.00512719  0.80793001     0.14900
C1325       C  0.24185540  0.98966289  0.75098299    -0.14700
C1326       C  0.22989610  0.96008498  0.73771353    -0.29900
H1327       H  0.25519281  0.02113458  0.74667083     0.14300
H1328       H  0.21678052  0.92852224  0.74204807     0.14900
C1329       C  0.22476270  0.67671748  0.36506692    -0.14700
C1330       C  0.22474375  0.63563059  0.37241234    -0.29900
H1331       H  0.22491384  0.70528238  0.37458551     0.14300
H1332       H  0.22776587  0.60691759  0.36308911     0.14900
C1333       C  0.25695576  0.76196402  0.12241633    -0.14700
C1334       C  0.25486136  0.80324313  0.11526127    -0.29900
H1335       H  0.25720101  0.73362973  0.11277095     0.14300
H1336       H  0.25162638  0.83160117  0.12476736     0.14900
C1337       C  0.23888851  0.70360247  0.23676130    -0.14700
C1338       C  0.24870439  0.73228894  0.25071448    -0.29900
H1339       H  0.22620721  0.67133350  0.24034743     0.14300
H1340       H  0.26134806  0.76457521  0.24712953     0.14900
C1341       C  0.50401417  0.63910775  0.36595610    -0.14700
C1342       C  0.50120610  0.68070586  0.37278146    -0.29900
H1343       H  0.50349122  0.61128094  0.37576714     0.14300
H1344       H  0.49866804  0.70835053  0.36294963     0.14900
C1345       C  0.34970755  0.64590108  0.30759999    -0.14700
C1346       C  0.38468528  0.66956727  0.30764373    -0.29900
H1347       H  0.35096254  0.60991251  0.30720193     0.14300
H1348       H  0.38348740  0.70554508  0.30721284     0.14900
C1349       C  0.47943518  0.54755572  0.12301501    -0.14700
C1350       C  0.47997794  0.50566406  0.11641408    -0.29900
H1351       H  0.48029074  0.57502637  0.11301950     0.14300
H1352       H  0.48246347  0.47815059  0.12631600     0.14900
C1353       C  0.37256803  0.63404679  0.17930257    -0.14700
C1354       C  0.36641696  0.67806673  0.17870208    -0.29900
H1355       H  0.34636055  0.61167660  0.18004931     0.14300
H1356       H  0.39260082  0.70053123  0.17874228     0.14900
C1357       C  0.50002809  0.60938684  0.23718783    -0.14700
C1358       C  0.48849322  0.58163628  0.25117394    -0.29900
H1359       H  0.51337261  0.64139124  0.24075471     0.14300
H1360       H  0.47512178  0.54966295  0.24756599     0.14900
C1361       C  0.00132245  0.88332963  0.36625124    -0.14700
C1362       C  0.00176109  0.92546186  0.37256886    -0.29900
H1363       H  0.99965796  0.85618922  0.37638965     0.14300
H1364       H  0.00029499  0.95263918  0.36244965     0.14900
C1365       C  0.11202279  0.80205032  0.30923575    -0.14700
C1366       C  0.11904506  0.75818543  0.30846613    -0.29900
H1367       H  0.13772432  0.82514547  0.30920862     0.14300
H1368       H  0.09325109  0.73526012  0.30773633     0.14900
C1369       C  0.98229066  0.80221268  0.12322010    -0.14700
C1370       C  0.98288277  0.76115233  0.11562783    -0.29900
H1371       H  0.98308676  0.83094088  0.11389977     0.14300
H1372       H  0.98514949  0.73226319  0.12478504     0.14900
C1373       C  0.10088474  0.76666715  0.18154643    -0.14700
C1374       C  0.13593059  0.79025897  0.18133583    -0.29900
H1375       H  0.10190314  0.73067814  0.18188362     0.14300
H1376       H  0.13479275  0.82625141  0.18177876     0.14900
C1377       C  0.99725172  0.85343594  0.23825435    -0.14700
C1378       C  0.98526288  0.82458492  0.25174478    -0.29900
H1379       H  0.01050426  0.88514028  0.24236146     0.14300
H1380       H  0.97225112  0.79273933  0.24768037     0.14900
C1381       C  0.72442988  0.92361747  0.36542533    -0.14700
C1382       C  0.72317957  0.88289387  0.37312507    -0.29900
H1383       H  0.72742726  0.95267659  0.37453913     0.14300
H1384       H  0.72334102  0.85386845  0.36387015     0.14900
C1385       C  0.84322540  0.88044920  0.30754080    -0.14700
C1386       C  0.87760913  0.90533564  0.30754535    -0.29900
H1387       H  0.84538488  0.84450480  0.30777318     0.14300
H1388       H  0.87529976  0.94122267  0.30669847     0.14900
C1389       C  0.61947482  0.50989928  0.30806515    -0.14700
C1390       C  0.61390695  0.55399714  0.30892554    -0.29900
H1391       H  0.59298837  0.48794217  0.30718606     0.14300
H1392       H  0.64038225  0.57606290  0.30904267     0.14900
C1393       C  0.75818436  0.55896257  0.11599671    -0.14700
C1394       C  0.76027380  0.51692930  0.12226833    -0.29900
H1395       H  0.75526006  0.58607676  0.12617963     0.14300
H1396       H  0.75985448  0.48970428  0.11205402     0.14900
C1397       C  0.63773581  0.54391974  0.18036744    -0.14700
C1398       C  0.60271616  0.52025857  0.18051687    -0.29900
H1399       H  0.63653613  0.57990810  0.18083814     0.14300
H1400       H  0.60396269  0.48427582  0.18094248     0.14900
C1401       C  0.87028352  0.93349167  0.18000267    -0.14700
C1402       C  0.87469439  0.88909741  0.18020913    -0.29900
H1403       H  0.89730689  0.95476229  0.17991368     0.14300
H1404       H  0.84764325  0.86790587  0.18081585     0.14900
C1405       C  0.73391699  0.94747168  0.24840573    -0.14700
C1406       C  0.75093237  0.98206400  0.23931577    -0.29900
H1407       H  0.72109858  0.92012977  0.24020769     0.14300
H1408       H  0.72477772  0.42184814  0.23960543     0.14900
loop_ 
_geom_bond_atom_site_label_1 
_geom_bond_atom_site_label_2 
_geom_bond_distance 
_geom_bond_site_symmetry_2 
_ccdc_geom_bond_type 
O1           Cu9   2.012       .  S
O1          C715   1.278       .  A
O2           Cu9   2.007       .  S
O2           C12   1.276       .  A
O3         Cu713   1.997       .  S
O3           C13   1.277   1_565  A
O4           Cu9   2.006       .  S
O4           C14   1.278       .  A
O5          Cu10   2.023   1_565  S
O5          C718   1.279       .  A
O6          Cu10   2.019       .  S
O6           C13   1.279       .  A
O7          Cu10   2.001       .  S
O7          C716   1.275   1_545  A
O8          Cu10   1.994       .  S
O8           C11   1.277       .  A
Cu9         O707   2.009       .  S
Cu9        Cu714   2.375       .  S
Cu10       Cu713   2.374   1_545  S
C11         O705   1.279   1_545  A
C11         C690   1.476       .  S
C12         O711   1.280       .  A
C12         C702   1.478       .  S
C13         C693   1.476       .  S
C14         O709   1.277       .  A
C14         C697   1.475       .  S
O15         Cu23   2.014       .  S
O15          C25   1.279       .  A
O16         Cu23   2.020       .  S
O16          C26   1.280       .  A
O17         Cu23   2.003       .  S
O17          C27   1.276       .  A
O18         Cu23   2.010       .  S
O18         C732   1.277       .  A
O19        Cu728   1.995       .  S
O19          C28   1.276       .  A
O20         Cu24   2.011       .  S
O20          C27   1.279       .  A
O21        Cu728   2.020       .  S
O21         C730   1.280       .  A
O22         Cu24   2.008       .  S
O22          C25   1.277       .  A
Cu23        Cu24   2.375       .  S
Cu24        O723   2.006       .  S
Cu24        O725   2.004       .  S
C25         C677   1.474       .  S
C26         O725   1.276       .  A
C26         C701   1.477       .  S
C27         C681   1.473       .  S
C28         O722   1.279       .  A
C28         C685   1.476       .  S
O29         Cu37   2.004   1_655  S
O29          C39   1.276       .  A
O30         Cu37   2.001       .  S
O30          C40   1.276   1_455  A
O31         Cu37   2.011       .  S
O31          C41   1.279       .  A
O32         Cu37   2.007   1_655  S
O32          C42   1.278       .  A
O33         Cu38   2.012       .  S
O33          C42   1.277       .  A
O34         Cu38   2.003   1_455  S
O34          C41   1.276       .  A
O35         Cu38   2.017       .  S
O35          C40   1.280       .  A
O36         Cu38   2.011       .  S
O36          C39   1.278       .  A
Cu37        Cu38   2.375   1_455  S
C39         C665   1.471       .  S
C40         C673   1.475       .  S
C41         C669   1.474       .  S
C42         C698   1.475       .  S
O43         Cu51   2.015       .  S
O43          C53   1.280   1_455  A
O44         Cu51   2.011       .  S
O44          C54   1.278       .  A
O45         Cu51   2.008       .  S
O45          C55   1.277       .  A
O46         Cu51   2.000   1_655  S
O46          C56   1.276       .  A
O47         Cu52   2.014       .  S
O47          C56   1.279       .  A
O48         Cu52   2.009   1_455  S
O48          C55   1.279       .  A
O49         Cu52   2.008       .  S
O49          C54   1.277   1_655  A
O50         Cu52   2.002       .  S
O50          C53   1.276       .  A
Cu51        Cu52   2.376   1_455  S
C53         C674   1.475       .  S
C54         C657   1.472       .  S
C55         C661   1.474       .  S
C56         C682   1.472       .  S
O57         Cu65   2.014       .  S
O57          C67   1.278       .  A
O58         Cu65   2.008       .  S
O58          C68   1.277       .  A
O59         Cu65   2.010       .  S
O59          C69   1.278       .  A
O60         Cu65   2.004       .  S
O60          C70   1.278       .  A
O61         Cu66   2.014       .  S
O61          C70   1.277       .  A
O62         Cu66   2.007       .  S
O62          C69   1.277       .  A
O63         Cu66   2.008       .  S
O63          C68   1.278       .  A
O64         Cu66   2.005       .  S
O64          C67   1.277       .  A
Cu65        Cu66   2.375       .  S
C67         C645   1.473       .  S
C68         C653   1.475       .  S
C69         C694   1.473       .  S
C70         C649   1.475       .  S
O71         Cu79   2.007       .  S
O71          C81   1.278       .  A
O72         Cu79   2.010       .  S
O72          C82   1.279       .  A
O73         Cu79   2.006       .  S
O73          C83   1.276       .  A
O74         Cu79   2.014       .  S
O74          C84   1.278       .  A
O75         Cu80   2.004       .  S
O75          C84   1.277       .  A
O76         Cu80   2.005       .  S
O76          C83   1.279       .  A
O77         Cu80   2.006       .  S
O77          C82   1.277       .  A
O78         Cu80   2.013       .  S
O78          C81   1.278       .  A
Cu79        Cu80   2.376       .  S
C81         C637   1.473       .  S
C82         C654   1.474       .  S
C83         C642   1.473       .  S
C84         C686   1.474       .  S
O85         Cu93   1.998       .  S
O85          C95   1.275       .  A
O86         Cu93   2.006       .  S
O86          C96   1.276       .  A
O87         Cu93   2.013       .  S
O87          C97   1.278       .  A
O88         Cu93   2.016       .  S
O88          C98   1.280       .  A
O89         Cu94   1.998       .  S
O89          C98   1.275       .  A
O90         Cu94   2.004       .  S
O90          C97   1.277       .  A
O91         Cu94   2.013       .  S
O91          C96   1.279       .  A
O92         Cu94   2.017       .  S
O92          C95   1.280       .  A
Cu93        Cu94   2.376       .  S
C95         C670   1.472       .  S
C96         C650   1.473       .  S
C97         C629   1.471       .  S
C98         C633   1.473       .  S
O99        Cu107   2.012       .  S
O99         C109   1.278       .  A
O100       Cu107   2.016       .  S
O100        C110   1.280       .  A
O101       Cu107   1.998       .  S
O101        C111   1.275       .  A
O102       Cu107   2.009       .  S
O102        C112   1.277       .  A
O103       Cu108   2.007       .  S
O103        C112   1.278       .  A
O104       Cu108   2.012       .  S
O104        C111   1.279       .  A
O105       Cu108   1.998       .  S
O105        C110   1.275       .  A
O106       Cu108   2.001       .  S
O106        C109   1.276       .  A
Cu107      Cu108   2.376       .  S
C109        C625   1.469       .  S
C110        C634   1.473       .  S
C111        C641   1.471       .  S
C112        C662   1.474       .  S
O113       Cu121   2.010       .  S
O113        C123   1.278       .  A
O114       Cu121   2.007       .  S
O114        C124   1.278       .  A
O115       Cu121   2.017       .  S
O115        C125   1.279       .  A
O116       Cu121   2.009       .  S
O116        C126   1.277       .  A
O117       Cu122   2.003       .  S
O117        C126   1.278       .  A
O118       Cu122   2.003       .  S
O118        C125   1.277       .  A
O119       Cu122   2.017       .  S
O119        C124   1.278       .  A
O120       Cu122   2.007       .  S
O120        C123   1.277       .  A
Cu121      Cu122   2.375       .  S
C123        C613   1.473       .  S
C124       C1322   1.477       .  S
C125        C609   1.473       .  S
C126        C621   1.473       .  S
O127       Cu135   2.006       .  S
O127        C137   1.277       .  A
O128       Cu135   2.010       .  S
O128        C138   1.278       .  A
O129       Cu135   2.009       .  S
O129        C139   1.277       .  A
O130       Cu135   2.009       .  S
O130        C844   1.279       .  A
O131       Cu136   2.007       .  S
O131        C140   1.277       .  A
O132       Cu840   2.014       .  S
O132        C139   1.279       .  A
O133       Cu136   2.004       .  S
O133        C842   1.277       .  A
O134       Cu840   2.007       .  S
O134        C137   1.278       .  A
Cu135      Cu840   2.376       .  S
Cu136       O836   2.016   1_545  S
Cu136       O838   2.006       .  S
Cu136      Cu839   2.376   1_545  S
C137        C622   1.473       .  S
C138        O837   1.277       .  A
C138       C1301   1.470       .  S
C139        C606   1.475       .  S
C140        O834   1.278   1_545  A
C140        C601   1.473       .  S
O141       Cu149   1.995       .  S
O141        C151   1.275       .  A
O142       Cu149   1.992       .  S
O142        C152   1.276       .  A
O143       Cu149   2.025       .  S
O143        C153   1.282       .  A
O144       Cu149   2.029       .  S
O144        C154   1.280       .  A
O145       Cu150   1.989       .  S
O145        C154   1.275       .  A
O146       Cu150   1.994       .  S
O146        C153   1.274       .  A
O147       Cu150   2.025       .  S
O147        C152   1.280       .  A
O148       Cu150   2.030       .  S
O148        C151   1.281       .  A
Cu149      Cu150   2.375       .  S
C151        C589   1.478       .  S
C152        C614   1.477       .  S
C153        C593   1.476       .  S
C154        C585   1.475       .  S
O155       Cu163   2.026       .  S
O155        C165   1.281       .  A
O156       Cu163   2.031       .  S
O156        C166   1.280       .  A
O157       Cu163   1.988       .  S
O157        C167   1.275       .  A
O158       Cu163   1.990       .  S
O158        C168   1.273       .  A
O159       Cu164   2.029       .  S
O159        C168   1.282       .  A
O160       Cu164   2.034       .  S
O160        C167   1.281       .  A
O161       Cu164   1.990       .  S
O161        C166   1.276       .  A
O162       Cu164   1.993       .  S
O162        C165   1.275       .  A
Cu163      Cu164   2.374       .  S
C165        C581   1.475       .  S
C166        C605   1.479       .  S
C167        C578   1.478       .  S
C168        C594   1.475       .  S
O169       Cu177   2.039       .  S
O169        C179   1.282       .  A
O170       Cu177   2.034       .  S
O170        C180   1.284       .  A
O171       Cu177   1.985       .  S
O171        C181   1.274       .  A
O172       Cu177   1.984       .  S
O172        C182   1.274       .  A
O173       Cu178   2.038       .  S
O173        C182   1.282       .  A
O174       Cu178   2.035       .  S
O174        C181   1.282       .  A
O175       Cu178   1.981       .  S
O175        C180   1.271       .  A
O176       Cu178   1.978       .  S
O176        C179   1.274       .  A
Cu177      Cu178   2.374       .  S
C179        C565   1.478       .  S
C180        C573   1.473       .  S
C181        C582   1.477       .  S
C182        C570   1.479       .  S
O183       Cu191   1.988       .  S
O183        C193   1.274       .  A
O184       Cu191   1.989       .  S
O184        C194   1.275       .  A
O185       Cu191   2.035       .  S
O185        C195   1.284       .  A
O186       Cu191   2.042       .  S
O186        C196   1.282       .  A
O187       Cu192   1.977       .  S
O187        C196   1.274       .  A
O188       Cu192   1.980       .  S
O188        C195   1.271       .  A
O189       Cu192   2.034       .  S
O189        C194   1.282       .  A
O190       Cu192   2.036       .  S
O190        C193   1.282       .  A
Cu191      Cu192   2.374       .  S
C193        C590   1.479       .  S
C194        C562   1.479       .  S
C195        C574   1.473       .  S
C196        C557   1.480       .  S
O197       Cu205   2.024   1_455  S
O197        C207   1.279       .  A
O198       Cu205   2.027       .  S
O198        C208   1.281       .  A
O199       Cu205   1.985       .  S
O199        C209   1.275       .  A
O200       Cu205   1.990       .  S
O200        C210   1.273       .  A
O201       Cu206   2.025       .  S
O201        C210   1.282       .  A
O202       Cu206   2.030       .  S
O202        C209   1.280       .  A
O203       Cu206   1.997       .  S
O203        C208   1.275       .  A
O204       Cu206   1.993   1_455  S
O204        C207   1.276       .  A
Cu205      Cu206   2.375       .  S
C207        C602   1.477       .  S
C208        C569   1.477       .  S
C209        C550   1.475       .  S
C210        C554   1.474       .  S
O211       Cu219   1.994   1_455  S
O211        C221   1.276       .  A
O212       Cu219   1.996       .  S
O212        C222   1.275       .  A
O213       Cu219   2.028       .  S
O213        C223   1.282       .  A
O214       Cu219   2.032       .  S
O214        C224   1.281       .  A
O215       Cu220   1.981       .  S
O215        C224   1.274   1_455  A
O216       Cu220   1.986       .  S
O216        C223   1.272   1_455  A
O217       Cu220   2.028   1_655  S
O217        C222   1.281       .  A
O218       Cu220   2.032       .  S
O218        C221   1.281       .  A
Cu219      Cu220   2.374   1_655  S
C221        C617   1.480       .  S
C222        C561   1.477       .  S
C223        C553   1.473       .  S
C224        C545   1.475       .  S
O225       Cu233   2.004       .  S
O225        C235   1.277       .  A
O226       Cu233   2.002       .  S
O226        C236   1.276       .  A
O227       Cu233   2.009       .  S
O227        C237   1.279       .  A
O228       Cu233   2.009       .  S
O228        C238   1.278       .  A
O229       Cu234   2.012       .  S
O229        C238   1.278       .  A
O230       Cu234   1.998       .  S
O230        C237   1.276       .  A
O231       Cu234   2.017       .  S
O231        C236   1.280       .  A
O232       Cu234   2.015       .  S
O232        C235   1.278       .  A
Cu233      Cu234   2.376       .  S
C235        C566   1.470       .  S
C236        C542   1.475       .  S
C237        C533   1.469       .  S
C238        C537   1.475       .  S
O239       Cu247   2.018       .  S
O239        C249   1.280       .  A
O240       Cu247   2.014       .  S
O240        C250   1.279       .  A
O241       Cu247   2.011       .  S
O241        C251   1.277       .  A
O242       Cu247   2.004       .  S
O242        C252   1.276       .  A
O243       Cu248   2.015       .  S
O243        C252   1.280       .  A
O244       Cu248   2.010       .  S
O244        C251   1.279       .  A
O245       Cu248   2.005       .  S
O245        C250   1.276       .  A
O246       Cu248   1.998       .  S
O246        C249   1.275       .  A
Cu247      Cu248   2.376       .  S
C249        C525   1.472       .  S
C250        C530   1.474       .  S
C251        C678   1.474       .  S
C252        C541   1.475       .  S
O253       Cu965   2.003   1_445  S
O253        C967   1.277   1_545  A
O254       Cu261   2.008       .  S
O254        C264   1.279       .  A
O255       Cu261   2.008       .  S
O255        C265   1.277       .  A
O256       Cu261   2.013       .  S
O256        C266   1.278   1_655  A
O257       Cu262   2.005       .  S
O257        C266   1.278       .  A
O258       Cu262   2.010       .  S
O258        C265   1.278   1_455  A
O259       Cu262   2.008   1_655  S
O259        C264   1.277       .  A
O260       Cu262   2.014       .  S
O260        C263   1.278       .  A
Cu261       O957   2.005   1_655  S
Cu261      Cu262   2.375   1_655  S
C263        O957   1.277       .  A
C263       C1221   1.474       .  S
C264        C526   1.475       .  S
C265        C521   1.475       .  S
C266        C658   1.474       .  S
O267       Cu275   2.013   1_455  S
O267        C277   1.278   1_455  A
O268       Cu275   2.022       .  S
O268        C278   1.279       .  A
O269       Cu275   2.005       .  S
O269        C279   1.278       .  A
O270       Cu275   2.009   1_455  S
O270        C984   1.278       .  A
O271       Cu980   2.008   1_455  S
O271        C280   1.277       .  A
O272       Cu276   2.015       .  S
O272        C279   1.278       .  A
O273       Cu980   2.008       .  S
O273        C982   1.277       .  A
O274       Cu276   2.005       .  S
O274        C277   1.278       .  A
Cu275      Cu276   2.374       .  S
Cu276       O975   2.010   1_655  S
Cu276       O977   2.003       .  S
C277        C522   1.476       .  S
C278        O977   1.277       .  A
C278       C1253   1.477       .  S
C279        C538   1.476       .  S
C280        O974   1.278   1_545  A
C280        C513   1.472       .  S
O281       Cu289   1.998       .  S
O281        C291   1.275       .  A
O282       Cu289   1.992       .  S
O282        C292   1.276       .  A
O283       Cu289   2.022       .  S
O283        C293   1.279       .  A
O284       Cu289   2.019       .  S
O284        C294   1.279       .  A
O285       Cu290   1.998       .  S
O285        C294   1.277       .  A
O286       Cu290   1.995       .  S
O286        C293   1.276       .  A
O287       Cu290   2.021       .  S
O287        C292   1.278       .  A
O288       Cu290   2.018       .  S
O288        C291   1.280       .  A
Cu289      Cu290   2.375       .  S
C291        C509   1.474       .  S
C292        C626   1.474       .  S
C293        C518   1.476       .  S
C294        C505   1.476       .  S
O295       Cu303   2.021       .  S
O295        C305   1.279       .  A
O296       Cu303   2.027       .  S
O296        C306   1.280       .  A
O297       Cu303   1.993       .  S
O297        C307   1.276       .  A
O298       Cu303   1.999       .  S
O298        C308   1.275       .  A
O299       Cu304   2.018       .  S
O299        C308   1.280       .  A
O300       Cu304   2.022       .  S
O300        C307   1.279       .  A
O301       Cu304   1.991       .  S
O301        C306   1.276       .  A
O302       Cu304   1.992       .  S
O302        C305   1.276       .  A
Cu303      Cu304   2.374       .  S
C305        C514   1.475       .  S
C306        C502   1.477       .  S
C307        C598   1.473       .  S
C308        C510   1.474       .  S
O309       Cu317   2.005       .  S
O309        C319   1.276       .  A
O310       Cu317   2.011       .  S
O310        C320   1.278       .  A
O311       Cu317   2.002       .  S
O311        C321   1.277       .  A
O312       Cu317   2.001       .  S
O312        C322   1.278       .  A
O313       Cu318   2.006       .  S
O313        C322   1.276       .  A
O314       Cu318   2.017       .  S
O314        C321   1.279       .  A
O315       Cu318   2.011       .  S
O315        C320   1.277       .  A
O316       Cu318   2.013       .  S
O316        C319   1.279       .  A
Cu317      Cu318   2.376       .  S
C319        C497   1.474       .  S
C320        C577   1.472       .  S
C321        C501   1.474       .  S
C322        C534   1.471       .  S
O323       Cu331   2.005       .  S
O323        C333   1.277       .  A
O324       Cu331   2.009       .  S
O324        C334   1.279       .  A
O325       Cu331   2.007       .  S
O325        C335   1.277       .  A
O326       Cu331   2.015       .  S
O326        C336   1.278       .  A
O327       Cu332   2.004       .  S
O327        C336   1.278       .  A
O328       Cu332   2.010       .  S
O328        C335   1.278       .  A
O329       Cu332   2.009       .  S
O329        C334   1.277       .  A
O330       Cu332   2.016       .  S
O330        C333   1.278       .  A
Cu331      Cu332   2.376       .  S
C333        C638   1.474       .  S
C334        C498   1.475       .  S
C335        C506   1.473       .  S
C336        C529   1.476       .  S
O337       Cu345   1.996       .  S
O337        C347   1.276       .  A
O338       Cu345   2.001       .  S
O338        C348   1.275       .  A
O339       Cu345   2.018       .  S
O339        C349   1.278       .  A
O340       Cu345   2.025       .  S
O340        C350   1.280       .  A
O341       Cu346   1.996       .  S
O341        C350   1.276       .  A
O342       Cu346   1.996       .  S
O342        C349   1.277       .  A
O343       Cu346   2.020       .  S
O343        C348   1.280       .  A
O344       Cu346   2.023       .  S
O344        C347   1.279       .  A
Cu345      Cu346   2.374       .  S
C347        C610   1.475       .  S
C348        C493   1.475       .  S
C349        C485   1.475       .  S
C350        C489   1.477       .  S
O351       Cu359   2.020       .  S
O351        C361   1.279       .  A
O352       Cu359   2.025       .  S
O352        C362   1.279       .  A
O353       Cu359   1.997       .  S
O353        C363   1.277       .  A
O354       Cu359   2.004       .  S
O354        C364   1.276       .  A
O355       Cu360   2.017       .  S
O355        C364   1.280       .  A
O356       Cu360   2.020       .  S
O356        C363   1.278       .  A
O357       Cu360   1.998       .  S
O357        C362   1.277       .  A
O358       Cu360   1.999       .  S
O358        C361   1.277       .  A
Cu359      Cu360   2.375       .  S
C361        C477   1.477       .  S
C362        C481   1.478       .  S
C363        C630   1.475       .  S
C364        C494   1.476   1_554  S
O365       Cu373   2.009       .  S
O365        C375   1.278       .  A
O366       Cu373   2.009       .  S
O366        C376   1.278       .  A
O367       Cu373   2.004       .  S
O367        C377   1.277       .  A
O368       Cu373   2.000       .  S
O368        C378   1.275       .  A
O369       Cu374   2.019       .  S
O369        C378   1.280       .  A
O370       Cu374   2.018       .  S
O370        C377   1.278       .  A
O371       Cu374   2.014       .  S
O371        C376   1.278       .  A
O372       Cu374   1.999       .  S
O372        C375   1.276       .  A
Cu373      Cu374   2.376       .  S
C375        C465   1.469       .  S
C376        C469   1.476       .  S
C377        C558   1.471       .  S
C378        C473   1.475       .  S
O379       Cu387   2.003       .  S
O379        C389   1.276       .  A
O380       Cu387   1.998       .  S
O380        C390   1.275       .  A
O381       Cu387   2.017       .  S
O381        C391   1.280       .  A
O382       Cu387   2.014       .  S
O382        C392   1.279       .  A
O383       Cu388   2.006       .  S
O383        C392   1.276       .  A
O384       Cu388   1.995       .  S
O384        C391   1.275       .  A
O385       Cu388   2.021       .  S
O385        C390   1.281       .  A
O386       Cu388   2.017       .  S
O386        C389   1.278       .  A
Cu387      Cu388   2.376       .  S
C389        C689   1.471       .  S
C390        C474   1.475       .  S
C391        C457   1.471       .  S
C392        C462   1.475       .  S
O393       Cu401   2.004       .  S
O393        C403   1.277       .  A
O394       Cu401   2.006       .  S
O394        C404   1.278       .  A
O395       Cu401   2.006       .  S
O395        C405   1.277       .  A
O396       Cu401   2.016       .  S
O396        C406   1.278       .  A
O397       Cu402   2.007       .  S
O397        C406   1.278       .  A
O398       Cu402   2.009       .  S
O398        C405   1.278       .  A
O399       Cu402   2.008       .  S
O399        C404   1.277       .  A
O400       Cu402   2.014       .  S
O400        C403   1.278       .  A
Cu401      Cu402   2.375       .  S
C403        C586   1.472       .  S
C404        C453   1.474       .  S
C405        C486   1.472       .  S
C406       C1174   1.477       .  S
O407       Cu415   2.008       .  S
O407        C417   1.277       .  A
O408      Cu1119   2.014       .  S
O408        C418   1.278       .  A
O409       Cu415   2.003       .  S
O409       C1123   1.277   1_545  A
O410      Cu1119   2.006       .  S
O410        C420   1.278       .  A
O411       Cu416   2.009       .  S
O411        C420   1.277       .  A
O412       Cu416   2.016       .  S
O412        C419   1.278       .  A
O413       Cu416   2.009       .  S
O413        C418   1.278       .  A
O414       Cu416   2.012       .  S
O414       C1121   1.279       .  A
Cu415      O1112   2.016   1_545  S
Cu415      O1114   2.007       .  S
Cu415     Cu1120   2.376   1_545  S
Cu416     Cu1119   2.376       .  S
C417       O1118   1.278   1_545  A
C417        C458   1.474       .  S
C418        C482   1.476       .  S
C419       O1113   1.277       .  A
C419       C1350   1.474       .  S
C420        C454   1.474       .  S
O421       Cu429   1.999       .  S
O421        C431   1.278       .  A
O422       Cu429   2.001   1_455  S
O422        C432   1.276       .  A
O423       Cu429   2.009       .  S
O423        C433   1.278   1_655  A
O424       Cu429   2.005       .  S
O424        C434   1.277       .  A
O425       Cu430   2.006       .  S
O425        C434   1.278   1_455  A
O426       Cu430   2.005       .  S
O426        C433   1.277       .  A
O427       Cu430   2.022       .  S
O427        C432   1.279       .  A
O428       Cu430   2.009   1_655  S
O428        C431   1.277       .  A
Cu429      Cu430   2.376   1_655  S
C431        C466   1.472       .  S
C432        C490   1.476       .  S
C433        C546   1.469       .  S
C434        C449   1.472       .  S
O435       Cu443   2.016   1_655  S
O435        C445   1.278       .  A
O436       Cu443   2.009       .  S
O436        C446   1.277   1_455  A
O437       Cu443   2.014       .  S
O437        C447   1.279       .  A
O438       Cu443   2.008   1_655  S
O438        C448   1.278       .  A
O439       Cu444   2.012       .  S
O439        C448   1.277       .  A
O440       Cu444   2.006   1_455  S
O440        C447   1.277       .  A
O441       Cu444   2.003       .  S
O441        C446   1.278       .  A
O442       Cu444   1.999       .  S
O442        C445   1.277       .  A
Cu443      Cu444   2.376   1_455  S
C445        C666   1.474       .  S
C446        C450   1.473   1_655  S
C447        C478   1.474       .  S
C448        C461   1.476       .  S
C449        C450   1.344   1_656  D
C449        H451   1.087       .  S
C450        H452   1.087   1_554  S
C453        C454   1.344   1_556  D
C453        H455   1.087       .  S
C454        H456   1.087   1_554  S
C457        C458   1.342       .  D
C457        H459   1.087   1_545  S
C458        H460   1.086       .  S
C461        C462   1.344       .  D
C461        H463   1.087       .  S
C462        H464   1.087       .  S
C465        C466   1.342       .  D
C465        H467   1.087       .  S
C466        H468   1.087       .  S
C469        C470   1.345       .  D
C469        H471   1.087       .  S
C470       C1110   1.477       .  S
C470        H472   1.087   1_545  S
C473        C474   1.342   1_556  D
C473        H475   1.087       .  S
C474        H476   1.087   1_554  S
C477        C478   1.345       .  D
C477        H479   1.087       .  S
C478        H480   1.087       .  S
C481        C482   1.347       .  D
C481        H483   1.086       .  S
C482        H484   1.087       .  S
C485        C486   1.345       .  D
C485        H487   1.087       .  S
C486        H488   1.087       .  S
C489        C490   1.348       .  D
C489        H491   1.086       .  S
C490        H492   1.087       .  S
C493        C494   1.342       .  D
C493        H495   1.087       .  S
C494        H496   1.087       .  S
C497        C498   1.344       .  D
C497        H499   1.087       .  S
C498        H500   1.087       .  S
C501        C502   1.348       .  D
C501        H503   1.087       .  S
C502        H504   1.086       .  S
C505        C506   1.345       .  D
C505        H507   1.087       .  S
C506        H508   1.087       .  S
C509        C510   1.341       .  D
C509        H511   1.087       .  S
C510        H512   1.087       .  S
C513        C514   1.345       .  D
C513        H515   1.087       .  S
C514        H516   1.087   1_545  S
C517        C967   1.474   1_545  S
C517        C518   1.346       .  D
C517       H1223   1.087   1_545  S
C518        H520   1.087       .  S
H519       C1221   1.087       .  S
C521        C522   1.345       .  D
C521        H523   1.087       .  S
C522        H524   1.087   1_655  S
C525        C526   1.342       .  D
C525        H527   1.087       .  S
C526        H528   1.087       .  S
C529        C530   1.344       .  D
C529        H531   1.087       .  S
C530        H532   1.087       .  S
C533        C534   1.342       .  D
C533        H535   1.087       .  S
C534        H536   1.087       .  S
C537        C538   1.345       .  D
C537        H539   1.087       .  S
C538        H540   1.087       .  S
C541        C542   1.343       .  D
C541        H543   1.087       .  S
C542        H544   1.087       .  S
C545        C546   1.347   1_655  D
C545        H547   1.087       .  S
C546        H548   1.087       .  S
C549        C982   1.470       .  S
C549        C550   1.346       .  D
C549        H551   1.087   1_545  S
C550        H552   1.087       .  S
C553        C554   1.338       .  D
C553        H555   1.087   1_655  S
C554        H556   1.087       .  S
C557        C558   1.348       .  D
C557        H559   1.086       .  S
C558        H560   1.087       .  S
C561        C562   1.351       .  D
C561        H563   1.087       .  S
C562        H564   1.087       .  S
C565        C566   1.348       .  D
C565        H567   1.086       .  S
C566        H568   1.087       .  S
C569        C570   1.351       .  D
C569        H571   1.086       .  S
C570        H572   1.086       .  S
C573        C574   1.336       .  D
C573        H575   1.087       .  S
C574        H576   1.087       .  S
C577        C578   1.347       .  D
C577        H579   1.087       .  S
C578        H580   1.087       .  S
C581        C582   1.350       .  D
C581        H583   1.087       .  S
C582        H584   1.087       .  S
C585        C586   1.347       .  D
C585        H587   1.087       .  S
C586        H588   1.087       .  S
C589        C590   1.351       .  D
C589        H591   1.086       .  S
C590        H592   1.086       .  S
C593        C594   1.339       .  D
C593        H595   1.087       .  S
C594        H596   1.087       .  S
C597        C842   1.471       .  S
C597        C598   1.345       .  D
C597       H1303   1.087   1_545  S
C598        H600   1.087       .  S
H599       C1301   1.087       .  S
C601        C602   1.346       .  D
C601        H603   1.087       .  S
C602        H604   1.087   1_545  S
C605        C606   1.348       .  D
C605        H607   1.086       .  S
C606        H608   1.087       .  S
C609        C610   1.346       .  D
C609        H611   1.087       .  S
C610        H612   1.087       .  S
C613        C614   1.346       .  D
C613        H615   1.087       .  S
C614        H616   1.087       .  S
C617        C618   1.349       .  D
C617        H619   1.086       .  S
C618        C828   1.477       .  S
C618       H1324   1.087       .  S
H620       C1322   1.087       .  S
C621        C622   1.344       .  D
C621        H623   1.087       .  S
C622        H624   1.087       .  S
C625        C626   1.344       .  D
C625        H627   1.087       .  S
C626        H628   1.087       .  S
C629        C630   1.344       .  D
C629        H631   1.087       .  S
C630        H632   1.087       .  S
C633        C634   1.341       .  D
C633        H635   1.087       .  S
C634        H636   1.087       .  S
C637        C638   1.345       .  D
C637        H639   1.087       .  S
C638        H640   1.087       .  S
C641        C642   1.342       .  D
C641        H643   1.087       .  S
C642        H644   1.086       .  S
C645        C646   1.345       .  D
C645        H647   1.087       .  S
C646       C1123   1.473   1_545  S
C646        H648   1.087   1_545  S
C649        C650   1.344       .  D
C649        H651   1.087       .  S
C650        H652   1.087       .  S
C653        C654   1.344       .  D
C653        H655   1.087       .  S
C654        H656   1.087       .  S
C657        C658   1.343       .  D
C657        H659   1.087       .  S
C658        H660   1.087       .  S
C661        C662   1.343       .  D
C661        H663   1.087       .  S
C662        H664   1.087       .  S
C665        C666   1.343       .  D
C665        H667   1.087       .  S
C666        H668   1.087       .  S
C669        C670   1.341       .  D
C669        H671   1.087       .  S
C670        H672   1.087       .  S
C673        C674   1.342       .  D
C673        H675   1.087   1_655  S
C674        H676   1.087       .  S
C677        C678   1.343       .  D
C677        H679   1.087       .  S
C678        H680   1.087       .  S
C681        C682   1.342       .  D
C681        H683   1.087       .  S
C682        H684   1.087       .  S
C685        C686   1.346   1_565  D
C685        H687   1.086       .  S
C686        H688   1.087       .  S
C689        C690   1.344       .  D
C689        H691   1.087       .  S
C690        H692   1.087   1_545  S
C693        C694   1.345       .  D
C693        H695   1.087       .  S
C694        H696   1.087   1_545  S
C697        C698   1.344       .  D
C697        H699   1.087       .  S
C698        H700   1.087       .  S
C701        C702   1.343       .  D
C701        H703   1.087       .  S
C702       H1408   1.087       .  S
H704       C1406   1.087   1_545  S
O705       Cu713   2.025       .  S
O706       Cu713   2.022       .  S
O706        C716   1.281       .  A
O707        C717   1.279       .  A
O708       Cu713   1.997       .  S
O708        C718   1.276       .  A
O709       Cu714   2.013       .  S
O710       Cu714   2.003       .  S
O710        C717   1.276       .  A
O711       Cu714   2.018       .  S
O712       Cu714   2.015       .  S
O712        C715   1.278       .  A
C715       C1394   1.475       .  S
C716       C1406   1.476       .  S
C717       C1397   1.472       .  S
C718       C1401   1.477       .  S
O719       Cu727   1.995       .  S
O719        C729   1.277       .  A
O720       Cu727   2.002       .  S
O720        C730   1.275       .  A
O721       Cu727   2.019       .  S
O721        C731   1.278       .  A
O722       Cu727   2.022       .  S
O723        C732   1.278       .  A
O724       Cu728   1.996       .  S
O724        C731   1.277       .  A
O726       Cu728   2.022       .  S
O726        C729   1.279       .  A
Cu727      Cu728   2.374       .  S
C729       C1381   1.475       .  S
C730       C1405   1.477       .  S
C731       C1385   1.475       .  S
C732       C1389   1.474       .  S
O733       Cu741   2.005   1_655  S
O733        C743   1.277       .  A
O734       Cu741   2.001       .  S
O734        C744   1.276   1_455  A
O735       Cu741   2.000       .  S
O735        C745   1.278       .  A
O736       Cu741   2.002   1_655  S
O736        C746   1.277       .  A
O737       Cu742   2.018       .  S
O737        C746   1.279       .  A
O738       Cu742   2.006   1_455  S
O738        C745   1.276       .  A
O739       Cu742   2.010       .  S
O739        C744   1.279       .  A
O740       Cu742   2.009       .  S
O740        C743   1.277       .  A
Cu741      Cu742   2.376   1_455  S
C743       C1369   1.469       .  S
C744       C1377   1.472       .  S
C745       C1373   1.471       .  S
C746       C1402   1.475       .  S
O747       Cu755   2.004       .  S
O747        C757   1.278   1_455  A
O748       Cu755   2.001       .  S
O748        C758   1.277   1_455  A
O749       Cu755   2.011       .  S
O749        C759   1.277       .  A
O750       Cu755   2.004   1_655  S
O750        C760   1.277       .  A
O751       Cu756   2.010       .  S
O751        C760   1.278       .  A
O752       Cu756   2.006   1_455  S
O752        C759   1.278       .  A
O753       Cu756   2.016       .  S
O753        C758   1.278       .  A
O754       Cu756   2.008       .  S
O754        C757   1.277       .  A
Cu755      Cu756   2.375   1_455  S
C757       C1378   1.474       .  S
C758       C1361   1.473   1_655  S
C759       C1365   1.475       .  S
C760       C1386   1.472       .  S
O761       Cu769   2.009       .  S
O761        C771   1.277       .  A
O762       Cu769   2.006       .  S
O762        C772   1.276       .  A
O763       Cu769   2.011       .  S
O763        C773   1.279       .  A
O764       Cu769   2.007       .  S
O764        C774   1.278       .  A
O765       Cu770   2.010       .  S
O765        C774   1.277       .  A
O766       Cu770   2.002       .  S
O766        C773   1.276       .  A
O767       Cu770   2.016       .  S
O767        C772   1.280       .  A
O768       Cu770   2.010       .  S
O768        C771   1.278       .  A
Cu769      Cu770   2.375       .  S
C771       C1349   1.472       .  S
C772       C1357   1.477       .  S
C773       C1398   1.472       .  S
C774       C1353   1.474       .  S
O775       Cu783   2.016       .  S
O775        C785   1.279       .  A
O776       Cu783   2.021       .  S
O776        C786   1.280       .  A
O777       Cu783   2.000       .  S
O777        C787   1.275       .  A
O778       Cu783   2.010       .  S
O778        C788   1.277       .  A
O779       Cu784   2.006       .  S
O779        C788   1.278       .  A
O780       Cu784   2.009       .  S
O780        C787   1.279       .  A
O781       Cu784   2.001       .  S
O781        C786   1.276       .  A
O782       Cu784   2.007       .  S
O782        C785   1.277       .  A
Cu783      Cu784   2.375       .  S
C785       C1341   1.474       .  S
C786       C1358   1.476       .  S
C787       C1346   1.471       .  S
C788       C1390   1.474       .  S
O789       Cu797   1.995       .  S
O789        C799   1.275       .  A
O790       Cu797   2.010       .  S
O790        C800   1.277       .  A
O791       Cu797   2.015       .  S
O791        C801   1.278       .  A
O792       Cu797   2.018       .  S
O792        C802   1.280       .  A
O793       Cu798   1.999       .  S
O793        C802   1.275       .  A
O794       Cu798   2.005       .  S
O794        C801   1.277       .  A
O795       Cu798   2.007       .  S
O795        C800   1.278       .  A
O796       Cu798   2.009       .  S
O796        C799   1.279       .  A
Cu797      Cu798   2.376       .  S
C799       C1374   1.468       .  S
C800       C1354   1.474       .  S
C801       C1333   1.471       .  S
C802       C1337   1.474       .  S
O803       Cu811   2.013       .  S
O803        C813   1.278       .  A
O804       Cu811   2.018       .  S
O804        C814   1.280       .  A
O805       Cu811   1.997       .  S
O805        C815   1.275       .  A
O806       Cu811   2.007       .  S
O806        C816   1.277       .  A
O807       Cu812   2.010       .  S
O807        C816   1.279       .  A
O808       Cu812   2.012       .  S
O808        C815   1.279       .  A
O809       Cu812   2.000       .  S
O809        C814   1.275       .  A
O810       Cu812   2.002       .  S
O810        C813   1.276       .  A
Cu811      Cu812   2.376       .  S
C813       C1329   1.470       .  S
C814       C1338   1.475       .  S
C815       C1345   1.471       .  S
C816       C1366   1.474       .  S
O817       Cu825   2.007       .  S
O817        C827   1.279       .  A
O818       Cu825   2.009   1_545  S
O818        C828   1.277       .  A
O819       Cu825   2.014       .  S
O819        C829   1.278       .  A
O820       Cu825   2.008   1_545  S
O820        C830   1.277   1_545  A
O821       Cu826   2.004       .  S
O821        C830   1.278       .  A
O822       Cu826   2.003       .  S
O822        C829   1.276       .  A
O823       Cu826   2.018       .  S
O823        C828   1.279   1_565  A
O824       Cu826   2.007       .  S
O824        C827   1.277       .  A
Cu825      Cu826   2.376       .  S
C827       C1317   1.474       .  S
C829       C1313   1.471       .  S
C830       C1325   1.473       .  S
O831       Cu839   2.005       .  S
O831        C841   1.277       .  A
O832       Cu839   2.010       .  S
O832        C842   1.278   1_565  A
O833       Cu839   2.007       .  S
O833        C843   1.278       .  A
O834       Cu839   2.011       .  S
O835       Cu840   2.006       .  S
O835        C844   1.276       .  A
O836        C843   1.278       .  A
O837       Cu840   2.003       .  S
O838        C841   1.278   1_545  A
C841       C1326   1.472       .  S
C843       C1310   1.477       .  S
C844       C1305   1.474       .  S
O845       Cu853   2.009       .  S
O845        C855   1.278       .  A
O846       Cu853   2.012       .  S
O846        C856   1.279       .  A
O847       Cu853   2.005       .  S
O847        C857   1.276       .  A
O848       Cu853   2.009       .  S
O848        C858   1.277       .  A
O849       Cu854   2.013       .  S
O849        C858   1.278       .  A
O850       Cu854   2.018       .  S
O850        C857   1.280       .  A
O851       Cu854   2.002       .  S
O851        C856   1.276       .  A
O852       Cu854   2.013       .  S
O852        C855   1.278       .  A
Cu853      Cu854   2.375       .  S
C855       C1293   1.476       .  S
C856       C1318   1.472       .  S
C857       C1297   1.476       .  S
C858       C1289   1.473       .  S
O859       Cu867   2.002       .  S
O859        C869   1.276       .  A
O860       Cu867   2.011       .  S
O860        C870   1.277       .  A
O861       Cu867   2.012       .  S
O861        C871   1.278       .  A
O862       Cu867   2.017       .  S
O862        C872   1.280       .  A
O863       Cu868   2.005       .  S
O863        C872   1.276       .  A
O864       Cu868   2.011       .  S
O864        C871   1.277       .  A
O865       Cu868   2.012       .  S
O865        C870   1.278       .  A
O866       Cu868   2.016       .  S
O866        C869   1.280       .  A
Cu867      Cu868   2.375       .  S
C869       C1285   1.474       .  S
C870       C1309   1.476       .  S
C871       C1282   1.474       .  S
C872       C1298   1.477       .  S
O873       Cu881   2.009       .  S
O873        C883   1.277       .  A
O874       Cu881   2.006       .  S
O874        C884   1.276       .  A
O875       Cu881   2.013       .  S
O875        C885   1.279       .  A
O876       Cu881   2.009       .  S
O876        C886   1.279       .  A
O877       Cu882   2.013       .  S
O877        C886   1.277       .  A
O878       Cu882   2.005       .  S
O878        C885   1.276       .  A
O879       Cu882   2.017       .  S
O879        C884   1.280       .  A
O880       Cu882   2.010       .  S
O880        C883   1.278       .  A
Cu881      Cu882   2.375       .  S
C883       C1269   1.473       .  S
C884       C1277   1.477       .  S
C885       C1286   1.475       .  S
C886       C1274   1.477       .  S
O887       Cu895   2.009       .  S
O887        C897   1.278       .  A
O888       Cu895   2.011       .  S
O888        C898   1.279       .  A
O889       Cu895   2.005       .  S
O889        C899   1.276       .  A
O890       Cu895   2.012       .  S
O890        C900   1.277       .  A
O891       Cu896   2.014       .  S
O891        C900   1.279       .  A
O892       Cu896   2.019       .  S
O892        C899   1.280       .  A
O893       Cu896   2.001       .  S
O893        C898   1.276       .  A
O894       Cu896   2.013       .  S
O894        C897   1.277       .  A
Cu895      Cu896   2.375       .  S
C897       C1294   1.476       .  S
C898       C1266   1.472       .  S
C899       C1278   1.477       .  S
C900       C1261   1.475       .  S
O901       Cu909   1.998   1_455  S
O901        C911   1.275       .  A
O902       Cu909   2.009       .  S
O902        C912   1.277       .  A
O903       Cu909   2.013       .  S
O903        C913   1.278       .  A
O904       Cu909   2.017       .  S
O904        C914   1.280       .  A
O905       Cu910   2.003       .  S
O905        C914   1.276       .  A
O906       Cu910   2.011       .  S
O906        C913   1.277       .  A
O907       Cu910   2.013       .  S
O907        C912   1.279       .  A
O908       Cu910   2.016   1_455  S
O908        C911   1.279       .  A
Cu909      Cu910   2.375       .  S
C911       C1306   1.472       .  S
C912       C1273   1.475       .  S
C913       C1254   1.474       .  S
C914       C1258   1.476       .  S
O915       Cu923   2.011   1_455  S
O915        C925   1.278       .  A
O916       Cu923   2.011       .  S
O916        C926   1.279       .  A
O917       Cu923   2.001       .  S
O917        C927   1.276       .  A
O918       Cu923   2.003       .  S
O918        C928   1.277   1_655  A
O919       Cu924   2.014       .  S
O919        C928   1.278       .  A
O920       Cu924   2.018       .  S
O920        C927   1.280   1_455  A
O921       Cu924   2.002   1_655  S
O921        C926   1.276       .  A
O922       Cu924   2.013       .  S
O922        C925   1.278       .  A
Cu923      Cu924   2.376   1_655  S
C925       C1321   1.476       .  S
C926       C1265   1.472       .  S
C927       C1257   1.475       .  S
C928       C1249   1.469       .  S
O929       Cu937   2.013       .  S
O929        C939   1.277       .  A
O930       Cu937   2.006       .  S
O930        C940   1.276       .  A
O931       Cu937   2.023       .  S
O931        C941   1.280       .  A
O932       Cu937   2.019       .  S
O932        C942   1.279       .  A
O933       Cu938   2.004       .  S
O933        C942   1.276       .  A
O934       Cu938   1.998       .  S
O934        C941   1.275       .  A
O935       Cu938   2.012       .  S
O935        C940   1.279       .  A
O936       Cu938   2.007       .  S
O936        C939   1.278       .  A
Cu937      Cu938   2.375       .  S
C939       C1270   1.474       .  S
C940       C1246   1.476       .  S
C941       C1237   1.474       .  S
C942       C1241   1.475       .  S
O943       Cu951   2.011       .  S
O943        C953   1.279       .  A
O944       Cu951   2.007       .  S
O944        C954   1.278       .  A
O945       Cu951   2.004       .  S
O945        C955   1.276       .  A
O946       Cu951   2.000       .  S
O946        C956   1.276       .  A
O947       Cu952   2.018       .  S
O947        C956   1.280       .  A
O948       Cu952   2.013       .  S
O948        C955   1.278       .  A
O949       Cu952   2.007       .  S
O949        C954   1.277       .  A
O950       Cu952   1.998       .  S
O950        C953   1.275       .  A
Cu951      Cu952   2.376       .  S
C953       C1229   1.470       .  S
C954       C1234   1.473       .  S
C955       C1382   1.471       .  S
C956       C1245   1.474       .  S
O958       Cu965   2.005       .  S
O958        C968   1.279       .  A
O959       Cu965   2.004   1_545  S
O959        C969   1.276   1_545  A
O960       Cu965   2.011       .  S
O960        C970   1.277       .  A
O961       Cu966   2.006       .  S
O961        C970   1.278   1_455  A
O962       Cu966   2.009       .  S
O962        C969   1.279   1_455  A
O963       Cu966   2.004   1_655  S
O963        C968   1.276       .  A
O964       Cu966   2.014       .  S
O964        C967   1.278       .  A
Cu965      Cu966   2.376   1_655  S
C968       C1230   1.472       .  S
C969       C1225   1.473       .  S
C970       C1362   1.472   1_655  S
O971       Cu979   2.004       .  S
O971        C981   1.276       .  A
O972       Cu979   2.009       .  S
O972        C982   1.278   1_565  A
O973       Cu979   2.004       .  S
O973        C983   1.278       .  A
O974       Cu979   2.007   1_455  S
O975        C984   1.278       .  A
O976       Cu980   2.020   1_565  S
O976        C983   1.278       .  A
O978       Cu980   2.009       .  S
O978        C981   1.279   1_545  A
Cu979      Cu980   2.376   1_565  S
C981       C1226   1.473       .  S
C983       C1242   1.479       .  S
C984       C1217   1.474       .  S
O985       Cu993   2.001       .  S
O985        C995   1.275       .  A
O986       Cu993   1.995       .  S
O986        C996   1.277       .  A
O987       Cu993   2.021       .  S
O987        C997   1.279       .  A
O988       Cu993   2.016       .  S
O988        C998   1.278       .  A
O989       Cu994   1.999       .  S
O989        C998   1.277       .  A
O990       Cu994   1.997       .  S
O990        C997   1.277       .  A
O991       Cu994   2.021       .  S
O991        C996   1.278       .  A
O992       Cu994   2.017       .  S
O992        C995   1.280       .  A
Cu993      Cu994   2.375       .  S
C995       C1213   1.475       .  S
C996       C1330   1.475       .  S
C997       C1222   1.476       .  S
C998       C1209   1.475       .  S
O999      Cu1007   2.022       .  S
O999       C1009   1.279       .  A
O1000     Cu1007   2.029       .  S
O1000      C1010   1.280       .  A
O1001     Cu1007   1.994       .  S
O1001      C1011   1.276       .  A
O1002     Cu1007   2.000       .  S
O1002      C1012   1.275       .  A
O1003     Cu1008   2.018       .  S
O1003      C1012   1.280       .  A
O1004     Cu1008   2.020       .  S
O1004      C1011   1.279       .  A
O1005     Cu1008   1.995       .  S
O1005      C1010   1.276       .  A
O1006     Cu1008   1.997       .  S
O1006      C1009   1.277       .  A
Cu1007    Cu1008   2.374       .  S
C1009      C1218   1.477       .  S
C1010      C1206   1.479       .  S
C1011      C1302   1.473       .  S
C1012      C1214   1.475       .  S
O1013     Cu1021   2.010       .  S
O1013      C1023   1.277       .  A
O1014     Cu1021   2.017       .  S
O1014      C1024   1.278       .  A
O1015     Cu1021   2.010       .  S
O1015      C1025   1.278       .  A
O1016     Cu1021   2.013       .  S
O1016      C1026   1.279       .  A
O1017     Cu1022   2.009       .  S
O1017      C1026   1.276       .  A
O1018     Cu1022   2.014       .  S
O1018      C1025   1.278       .  A
O1019     Cu1022   2.006       .  S
O1019      C1024   1.278       .  A
O1020     Cu1022   2.009       .  S
O1020      C1023   1.278       .  A
Cu1021    Cu1022   2.374       .  S
C1023      C1201   1.476       .  S
C1024      C1281   1.475       .  S
C1025      C1205   1.476       .  S
C1026      C1238   1.476       .  S
O1027     Cu1035   2.007       .  S
O1027      C1037   1.278       .  A
O1028     Cu1035   2.010       .  S
O1028      C1038   1.279       .  A
O1029     Cu1035   2.007       .  S
O1029      C1039   1.277       .  A
O1030     Cu1035   2.011       .  S
O1030      C1040   1.277       .  A
O1031     Cu1036   2.003       .  S
O1031      C1040   1.278       .  A
O1032     Cu1036   2.008       .  S
O1032      C1039   1.278       .  A
O1033     Cu1036   2.009       .  S
O1033      C1038   1.277       .  A
O1034     Cu1036   2.017       .  S
O1034      C1037   1.278       .  A
Cu1035    Cu1036   2.375       .  S
C1037      C1342   1.476       .  S
C1038      C1202   1.475       .  S
C1039      C1210   1.473       .  S
C1040      C1233   1.474       .  S
O1041     Cu1049   1.987       .  S
O1041      C1051   1.275       .  A
O1042     Cu1049   1.991       .  S
O1042      C1052   1.273       .  A
O1043     Cu1049   2.027       .  S
O1043      C1053   1.280       .  A
O1044     Cu1049   2.033       .  S
O1044      C1054   1.281       .  A
O1045     Cu1050   1.994       .  S
O1045      C1054   1.275       .  A
O1046     Cu1050   1.994       .  S
O1046      C1053   1.276       .  A
O1047     Cu1050   2.026       .  S
O1047      C1052   1.282       .  A
O1048     Cu1050   2.030       .  S
O1048      C1051   1.280       .  A
Cu1049    Cu1050   2.374       .  S
C1051      C1314   1.475       .  S
C1052      C1197   1.474       .  S
C1053      C1189   1.479       .  S
C1054      C1193   1.479       .  S
O1055     Cu1063   2.030       .  S
O1055      C1065   1.281       .  A
O1056     Cu1063   2.031       .  S
O1056      C1066   1.281       .  A
O1057     Cu1063   1.989       .  S
O1057      C1067   1.275       .  A
O1058     Cu1063   1.992       .  S
O1058      C1068   1.273       .  A
O1059     Cu1064   2.025       .  S
O1059      C1068   1.282       .  A
O1060     Cu1064   2.030       .  S
O1060      C1067   1.280       .  A
O1061     Cu1064   1.988       .  S
O1061      C1066   1.275       .  A
O1062     Cu1064   1.992       .  S
O1062      C1065   1.275       .  A
Cu1063    Cu1064   2.374       .  S
C1065      C1181   1.477       .  S
C1066      C1185   1.478       .  S
C1067      C1334   1.477       .  S
C1068      C1198   1.474   1_554  S
O1069     Cu1077   2.014       .  S
O1069      C1079   1.278       .  A
O1070     Cu1077   2.009       .  S
O1070      C1080   1.278       .  A
O1071     Cu1077   2.021       .  S
O1071      C1081   1.279       .  A
O1072     Cu1077   2.014       .  S
O1072      C1082   1.278       .  A
O1073     Cu1078   2.008       .  S
O1073      C1082   1.278       .  A
O1074     Cu1078   2.005       .  S
O1074      C1081   1.277       .  A
O1075     Cu1078   2.015       .  S
O1075      C1080   1.278       .  A
O1076     Cu1078   2.009       .  S
O1076      C1079   1.278       .  A
Cu1077    Cu1078   2.374       .  S
C1079      C1169   1.475       .  S
C1080      C1173   1.477       .  S
C1081      C1262   1.477       .  S
C1082      C1177   1.477       .  S
O1083     Cu1091   2.021       .  S
O1083      C1093   1.279       .  A
O1084     Cu1091   2.014       .  S
O1084      C1094   1.278       .  A
O1085     Cu1091   2.012       .  S
O1085      C1095   1.279       .  A
O1086     Cu1091   2.009       .  S
O1086      C1096   1.277       .  A
O1087     Cu1092   2.010       .  S
O1087      C1096   1.278       .  A
O1088     Cu1092   2.005       .  S
O1088      C1095   1.276       .  A
O1089     Cu1092   2.008       .  S
O1089      C1094   1.278       .  A
O1090     Cu1092   2.006       .  S
O1090      C1093   1.277       .  A
Cu1091    Cu1092   2.375       .  S
C1093      C1393   1.477       .  S
C1094      C1178   1.476       .  S
C1095      C1161   1.474       .  S
C1096      C1166   1.474       .  S
O1097     Cu1105   1.999       .  S
O1097      C1107   1.277       .  A
O1098     Cu1105   2.002       .  S
O1098      C1108   1.277       .  A
O1099     Cu1105   2.008       .  S
O1099      C1109   1.278       .  A
O1100     Cu1105   2.015       .  S
O1100      C1110   1.278   1_565  A
O1101     Cu1106   2.009       .  S
O1101      C1110   1.278       .  A
O1102     Cu1106   2.014   1_565  S
O1102      C1109   1.278       .  A
O1103     Cu1106   2.015       .  S
O1103      C1108   1.278   1_545  A
O1104     Cu1106   2.023   1_565  S
O1104      C1107   1.279       .  A
Cu1105    Cu1106   2.374   1_565  S
C1107      C1290   1.476       .  S
C1108      C1157   1.475       .  S
C1109      C1190   1.474       .  S
O1111     Cu1119   2.006       .  S
O1111      C1121   1.276       .  A
O1112      C1122   1.279       .  A
O1113     Cu1119   2.002       .  S
O1114      C1124   1.278   1_545  A
O1115     Cu1120   2.010       .  S
O1115      C1124   1.277       .  A
O1116     Cu1120   2.015       .  S
O1116      C1123   1.278       .  A
O1117     Cu1120   2.005       .  S
O1117      C1122   1.277       .  A
O1118     Cu1120   2.003       .  S
C1121      C1162   1.474       .  S
C1122      C1186   1.474       .  S
C1124      C1158   1.474   1_554  S
O1125     Cu1133   1.995       .  S
O1125      C1135   1.276       .  A
O1126     Cu1133   1.995   1_455  S
O1126      C1136   1.275       .  A
O1127     Cu1133   2.031       .  S
O1127      C1137   1.280   1_655  A
O1128     Cu1133   2.025       .  S
O1128      C1138   1.282   1_655  A
O1129     Cu1134   1.989       .  S
O1129      C1138   1.273       .  A
O1130     Cu1134   1.984       .  S
O1130      C1137   1.275       .  A
O1131     Cu1134   2.032       .  S
O1131      C1136   1.281       .  A
O1132     Cu1134   2.029   1_655  S
O1132      C1135   1.280       .  A
Cu1133    Cu1134   2.374   1_655  S
C1135      C1170   1.479       .  S
C1136      C1194   1.479       .  S
C1137      C1250   1.476       .  S
C1138      C1153   1.473       .  S
O1139     Cu1147   2.031       .  S
O1139      C1149   1.280       .  A
O1140     Cu1147   2.026       .  S
O1140      C1150   1.282       .  A
O1141     Cu1147   1.994   1_455  S
O1141      C1151   1.275       .  A
O1142     Cu1147   1.989       .  S
O1142      C1152   1.276       .  A
O1143     Cu1148   2.031       .  S
O1143      C1152   1.280       .  A
O1144     Cu1148   2.027   1_455  S
O1144      C1151   1.281       .  A
O1145     Cu1148   1.988       .  S
O1145      C1150   1.273       .  A
O1146     Cu1148   1.982       .  S
O1146      C1149   1.275       .  A
Cu1147    Cu1148   2.374       .  S
C1149      C1370   1.475       .  S
C1150      C1154   1.473   1_554  S
C1151      C1182   1.477       .  S
C1152      C1165   1.479       .  S
C1153      C1154   1.338   1_455  D
C1153      H1155   1.087       .  S
C1154      H1156   1.087       .  S
C1157      C1158   1.345       .  D
C1157      H1159   1.087   1_565  S
C1158      H1160   1.087       .  S
C1161      C1162   1.343       .  D
C1161      H1163   1.087       .  S
C1162      H1164   1.087       .  S
C1165      C1166   1.347       .  D
C1165      H1167   1.086       .  S
C1166      H1168   1.087       .  S
C1169      C1170   1.347       .  D
C1169      H1171   1.087       .  S
C1170      H1172   1.087       .  S
C1173      C1174   1.346       .  D
C1173      H1175   1.087       .  S
C1174      H1176   1.087       .  S
C1177      C1178   1.346   1_556  D
C1177      H1179   1.087       .  S
C1178      H1180   1.087   1_554  S
C1181      C1182   1.350       .  D
C1181      H1183   1.087       .  S
C1182      H1184   1.087       .  S
C1185      C1186   1.348       .  D
C1185      H1187   1.086       .  S
C1186      H1188   1.087       .  S
C1189      C1190   1.347       .  D
C1189      H1191   1.087       .  S
C1190      H1192   1.087       .  S
C1193      C1194   1.351       .  D
C1193      H1195   1.086       .  S
C1194      H1196   1.086       .  S
C1197      C1198   1.339       .  D
C1197      H1199   1.087       .  S
C1198      H1200   1.087       .  S
C1201      C1202   1.344       .  D
C1201      H1203   1.087       .  S
C1202      H1204   1.087       .  S
C1205      C1206   1.347       .  D
C1205      H1207   1.087       .  S
C1206      H1208   1.086       .  S
C1209      C1210   1.345       .  D
C1209      H1211   1.087       .  S
C1210      H1212   1.087       .  S
C1213      C1214   1.342       .  D
C1213      H1215   1.087       .  S
C1214      H1216   1.087       .  S
C1217      C1218   1.346       .  D
C1217      H1219   1.087       .  S
C1218      H1220   1.087       .  S
C1221      C1222   1.346       .  D
C1222      H1224   1.086       .  S
C1225      C1226   1.343       .  D
C1225      H1227   1.087   1_565  S
C1226      H1228   1.087   1_655  S
C1229      C1230   1.342       .  D
C1229      H1231   1.087       .  S
C1230      H1232   1.086       .  S
C1233      C1234   1.344       .  D
C1233      H1235   1.087       .  S
C1234      H1236   1.087       .  S
C1237      C1238   1.342       .  D
C1237      H1239   1.087       .  S
C1238      H1240   1.087       .  S
C1241      C1242   1.345       .  D
C1241      H1243   1.087       .  S
C1242      H1244   1.086       .  S
C1245      C1246   1.343       .  D
C1245      H1247   1.087       .  S
C1246      H1248   1.087       .  S
C1249      C1250   1.346       .  D
C1249      H1251   1.087       .  S
C1250      H1252   1.086   1_455  S
C1253      C1254   1.345       .  D
C1253      H1255   1.087       .  S
C1254      H1256   1.087       .  S
C1257      C1258   1.343       .  D
C1257      H1259   1.087       .  S
C1258      H1260   1.087   1_655  S
C1261      C1262   1.345       .  D
C1261      H1263   1.087       .  S
C1262      H1264   1.087       .  S
C1265      C1266   1.342       .  D
C1265      H1267   1.087       .  S
C1266      H1268   1.087       .  S
C1269      C1270   1.343       .  D
C1269      H1271   1.087       .  S
C1270      H1272   1.087       .  S
C1273      C1274   1.344       .  D
C1273      H1275   1.087       .  S
C1274      H1276   1.087       .  S
C1277      C1278   1.343       .  D
C1277      H1279   1.087       .  S
C1278      H1280   1.087       .  S
C1281      C1282   1.344       .  D
C1281      H1283   1.087       .  S
C1282      H1284   1.087       .  S
C1285      C1286   1.342       .  D
C1285      H1287   1.087       .  S
C1286      H1288   1.087       .  S
C1289      C1290   1.345       .  D
C1289      H1291   1.087       .  S
C1290      H1292   1.087       .  S
C1293      C1294   1.345       .  D
C1293      H1295   1.087       .  S
C1294      H1296   1.087       .  S
C1297      C1298   1.343       .  D
C1297      H1299   1.087       .  S
C1298      H1300   1.087       .  S
C1301      C1302   1.345       .  D
C1302      H1304   1.087       .  S
C1305      C1306   1.342       .  D
C1305      H1307   1.087       .  S
C1306      H1308   1.087       .  S
C1309      C1310   1.345       .  D
C1309      H1311   1.087       .  S
C1310      H1312   1.087       .  S
C1313      C1314   1.347       .  D
C1313      H1315   1.087       .  S
C1314      H1316   1.087       .  S
C1317      C1318   1.343       .  D
C1317      H1319   1.087       .  S
C1318      H1320   1.087       .  S
C1321      C1322   1.345       .  D
C1321      H1323   1.087       .  S
C1325      C1326   1.344       .  D
C1325      H1327   1.087   1_565  S
C1326      H1328   1.087       .  S
C1329      C1330   1.344       .  D
C1329      H1331   1.087       .  S
C1330      H1332   1.087       .  S
C1333      C1334   1.346       .  D
C1333      H1335   1.087       .  S
C1334      H1336   1.087       .  S
C1337      C1338   1.342       .  D
C1337      H1339   1.087       .  S
C1338      H1340   1.087       .  S
C1341      C1342   1.344       .  D
C1341      H1343   1.087       .  S
C1342      H1344   1.087       .  S
C1345      C1346   1.341       .  D
C1345      H1347   1.087       .  S
C1346      H1348   1.087       .  S
C1349      C1350   1.344       .  D
C1349      H1351   1.087       .  S
C1350      H1352   1.087       .  S
C1353      C1354   1.344       .  D
C1353      H1355   1.087       .  S
C1354      H1356   1.087       .  S
C1357      C1358   1.343       .  D
C1357      H1359   1.087       .  S
C1358      H1360   1.087       .  S
C1361      C1362   1.344       .  D
C1361      H1363   1.087   1_455  S
C1362      H1364   1.087       .  S
C1365      C1366   1.344       .  D
C1365      H1367   1.087       .  S
C1366      H1368   1.087       .  S
C1369      C1370   1.346       .  D
C1369      H1371   1.087       .  S
C1370      H1372   1.087       .  S
C1373      C1374   1.341       .  D
C1373      H1375   1.087       .  S
C1374      H1376   1.087       .  S
C1377      C1378   1.343       .  D
C1377      H1379   1.087   1_655  S
C1378      H1380   1.087       .  S
C1381      C1382   1.344       .  D
C1381      H1383   1.087       .  S
C1382      H1384   1.087       .  S
C1385      C1386   1.345       .  D
C1385      H1387   1.087       .  S
C1386      H1388   1.087       .  S
C1389      C1390   1.344       .  D
C1389      H1391   1.087       .  S
C1390      H1392   1.087       .  S
C1393      C1394   1.345       .  D
C1393      H1395   1.087       .  S
C1394      H1396   1.087       .  S
C1397      C1398   1.342       .  D
C1397      H1399   1.087       .  S
C1398      H1400   1.087       .  S
C1401      C1402   1.347       .  D
C1401      H1403   1.086       .  S
C1402      H1404   1.087       .  S
C1405      C1406   1.342       .  D
C1405      H1407   1.087       .  S
