geometry optimzed in LAMMPS
_audit_creation_date              2020-12-01 
_audit_creation_method            'lammps2cif' 
_symmetry_space_group_name_H-M    'P1' 
_symmetry_Int_Tables_number       1 
_symmetry_cell_setting            triclinic 
loop_ 
_symmetry_equiv_pos_as_xyz 
  x,y,z 
_cell_length_a                    49.80549411 
_cell_length_b                    27.68577501566021 
_cell_length_c                    29.983589391616672 
_cell_angle_alpha                 89.7185998858879 
_cell_angle_beta                  97.32609407004603 
_cell_angle_gamma                 90.13488998455074 
loop_ 
_atom_site_label 
_atom_site_type_symbol 
_atom_site_fract_x 
_atom_site_fract_y 
_atom_site_fract_z 
_atom_site_charge 
Fe1        Fe  0.84296085  0.51721533  0.71820038     1.65800
Fe2        Fe  0.84422891  0.62514888  0.66638856     1.73200
Fe3        Fe  0.78845440  0.59061960  0.71347741     1.54400
O4          O  0.77376828  0.52449601  0.69107855    -0.82000
O5          O  0.83184357  0.68470677  0.70088141    -0.80300
O6          O  0.80752652  0.47682735  0.71759835    -0.84500
O7          O  0.84115697  0.53471722  0.78358123    -0.79400
O8          O  0.77456254  0.61783231  0.64926255    -0.81200
O9          O  0.87898668  0.62269729  0.71110479    -0.83900
C10         C  0.82105322  0.54957256  0.80187933     0.96900
C11         C  0.78281545  0.48307851  0.70253291     1.04300
O12         O  0.82507001  0.57815144  0.69936094    -1.12900
O13         O  0.85748155  0.57051135  0.62629355    -0.75300
O14         O  0.84475332  0.49954777  0.65264762    -0.78800
O15         O  0.79915045  0.56514150  0.77943259    -0.79500
C16         C  0.85310854  0.52515673  0.62184250     0.95800
O17         O  0.88232307  0.54411200  0.72269521    -0.77500
O18         O  0.81206982  0.63330352  0.61844313    -0.82600
C19         C  0.81386981  0.69150587  0.72682731     0.98400
C20         C  0.78660679  0.63097785  0.61613806     1.04300
O21         O  0.79806719  0.65849182  0.73692975    -0.78300
C22         C  0.89308058  0.58560461  0.72166912     1.02600
Fe23       Fe  0.64716319  0.93222664  0.26241598     1.65800
Fe24       Fe  0.64764686  0.82183542  0.30874786     1.73200
Fe25       Fe  0.69668292  0.85496576  0.24541099     1.54400
O26         O  0.68005837  0.88817068  0.18443037    -0.82000
O27         O  0.68323180  0.81075977  0.34849936    -0.80300
O28         O  0.63978373  0.91852731  0.19569352    -0.84500
O29         O  0.68260755  0.96977348  0.25298170    -0.79400
O30         O  0.68213415  0.78999053  0.22001471    -0.81200
O31         O  0.63956445  0.87545217  0.35469773    -0.83900
C32         C  0.70771110  0.96045927  0.26110112     0.96900
C33         C  0.65717749  0.90765610  0.17007100     1.04300
O34         O  0.66399700  0.86900597  0.27206993    -1.12900
O35         O  0.60994522  0.82866592  0.27200162    -0.75300
O36         O  0.60828876  0.90841421  0.26968959    -0.78800
O37         O  0.71603450  0.91775876  0.26879463    -0.79500
C38         C  0.59656973  0.86758386  0.26746588     0.95800
O39         O  0.65465827  0.94526704  0.32928653    -0.77500
O40         O  0.65574530  0.76243096  0.26910858    -0.82600
C41         C  0.70745798  0.80714541  0.34054078     0.98400
C42         C  0.66935794  0.75588731  0.23630036     1.04300
O43         O  0.71544677  0.82012463  0.30347839    -0.78300
C44         C  0.64839132  0.91867654  0.36094145     1.02600
Fe45       Fe  0.64540960  0.01431790  0.75725388     1.65800
Fe46       Fe  0.64185459  0.12133236  0.80705666     1.73200
Fe47       Fe  0.69896400  0.08943132  0.76352697     1.54400
O48         O  0.71398235  0.02394807  0.78800602    -0.82000
O49         O  0.65580183  0.18203317  0.77555064    -0.80300
O50         O  0.68127201  0.97590106  0.75847637    -0.84500
O51         O  0.64709079  0.03250729  0.69202293    -0.79400
O52         O  0.71082925  0.11844395  0.82796265    -0.81200
O53         O  0.60918118  0.11884305  0.75824339    -0.83900
C54         C  0.66811022  0.04518833  0.67494505     0.96900
C55         C  0.70567429  0.98251591  0.77529620     1.04300
O56         O  0.66231419  0.07569381  0.77582834    -1.12900
O57         O  0.62697865  0.06548376  0.84516726    -0.75300
O58         O  0.64470217  0.99687213  0.82279617    -0.78800
O59         O  0.68968176  0.06146449  0.69802366    -0.79500
C60         C  0.63532494  0.02212897  0.85236692     0.95800
O61         O  0.60582744  0.03962634  0.75245317    -0.77500
O62         O  0.67241903  0.12871559  0.85753165    -0.82600
C63         C  0.67410044  0.19002875  0.75043845     0.98400
C64         C  0.69792198  0.12958945  0.86071338     1.04300
O65         O  0.68900479  0.15692345  0.73805691    -0.78300
C66         C  0.59525892  0.08129129  0.74866899     1.02600
Fe67       Fe  0.84108401  0.43425025  0.21525358     1.65800
Fe68       Fe  0.83994391  0.32650934  0.16446384     1.73200
Fe69       Fe  0.79032275  0.35690031  0.22645797     1.54400
O70         O  0.80464554  0.38926616  0.28824751    -0.82000
O71         O  0.80476996  0.32012043  0.12212685    -0.80300
O72         O  0.84599074  0.41852786  0.28221321    -0.84500
O73         O  0.80519162  0.47120618  0.22146564    -0.79400
O74         O  0.80501386  0.29218162  0.25272112    -0.81200
O75         O  0.85031855  0.38168297  0.12168270    -0.83900
C76         C  0.78033955  0.46277931  0.20859154     0.96900
C77         C  0.82760530  0.40592825  0.30559288     1.04300
O78         O  0.82378939  0.37192683  0.20233586    -1.12900
O79         O  0.87716768  0.32965897  0.20343549    -0.75300
O80         O  0.88024275  0.40917483  0.21081132    -0.78800
O81         O  0.77196471  0.41993901  0.20125377    -0.79500
C82         C  0.89120355  0.36777974  0.21023468     0.95800
O83         O  0.83597030  0.45077345  0.14853329    -0.77500
O84         O  0.82964400  0.26562193  0.20099913    -0.82600
C85         C  0.78079516  0.31281820  0.13020820     0.98400
C86         C  0.81654068  0.25814905  0.23438419     1.04300
O87         O  0.77287953  0.32175344  0.16810302    -0.78300
C88         C  0.84327033  0.42595683  0.11679822     1.02600
Fe89       Fe  0.14741914  0.50371368  0.76401748     1.65800
Fe90       Fe  0.14769569  0.60658409  0.82202359     1.73200
Fe91       Fe  0.19822513  0.58448633  0.75944084     1.54400
O92         O  0.21716567  0.51972479  0.77750600    -0.82000
O93         O  0.15947154  0.67105448  0.79350272    -0.80300
O94         O  0.18367967  0.46759166  0.75969615    -0.84500
O95         O  0.14467804  0.52266618  0.69765554    -0.79400
O96         O  0.21466356  0.61304560  0.82175399    -0.81200
O97         O  0.11191945  0.60791663  0.78003754    -0.83900
C98         C  0.16287314  0.53975593  0.67597775     0.96900
C99         C  0.20876711  0.47717834  0.76845974     1.04300
O100        O  0.16458367  0.56520677  0.78146547    -1.12900
O101        O  0.13512828  0.54871793  0.85923293    -0.75300
O102        O  0.15045934  0.48238589  0.83017190    -0.78800
O103        O  0.18481452  0.55866127  0.69494071    -0.79500
C104        C  0.14285452  0.50494060  0.86308040     0.95800
O105        O  0.10799257  0.52999198  0.76455522    -0.77500
O106        O  0.18191588  0.60746282  0.86602473    -0.82600
C107        C  0.17276815  0.68295268  0.76164555     0.98400
C108        C  0.20609090  0.61631665  0.85999209     1.04300
O109        O  0.18342667  0.65143259  0.73890992    -0.78300
C110        C  0.09762118  0.57195616  0.76598769     1.02600
Fe111      Fe  0.33860485  0.91847039  0.22818921     1.65800
Fe112      Fe  0.34557754  0.80837686  0.18485826     1.73200
Fe113      Fe  0.28779720  0.83764300  0.22861768     1.54400
O114        O  0.29852336  0.86578970  0.29363375    -0.82000
O115        O  0.31399650  0.79058762  0.13840142    -0.80300
O116        O  0.33879623  0.90309936  0.29478965    -0.84500
O117        O  0.30194575  0.95342206  0.22866975    -0.79400
O118        O  0.29968962  0.77095853  0.25334492    -0.81200
O119        O  0.35516784  0.86263863  0.14023384    -0.83900
C120        C  0.27726608  0.94406945  0.21625828     0.96900
C121        C  0.31959523  0.88618846  0.31458366     1.04300
O122        O  0.32376338  0.85421991  0.21382022    -1.12900
O123        O  0.38026889  0.82001106  0.22880935    -0.75300
O124        O  0.37906473  0.89942575  0.23149039    -0.78800
O125        O  0.26964766  0.90171793  0.20532210    -0.79500
C126        C  0.39211341  0.86017350  0.23559485     0.95800
O127        O  0.33790579  0.93259676  0.16113948    -0.77500
O128        O  0.33672260  0.74901670  0.22414455    -0.82600
C129        C  0.28848455  0.78910094  0.13563120     0.98400
C130        C  0.31756739  0.74003925  0.24743212     1.04300
O131        O  0.27523255  0.80686112  0.16543434    -0.78300
C132        C  0.34743662  0.90626568  0.13222370     1.02600
Fe133      Fe  0.14803305  0.41637952  0.26262059     1.65800
Fe134      Fe  0.14451960  0.31300295  0.32165573     1.73200
Fe135      Fe  0.19968572  0.33681051  0.26812105     1.54400
O136        O  0.18873402  0.36059647  0.20145448    -0.82000
O137        O  0.17771016  0.30352605  0.36795709    -0.80300
O138        O  0.14752608  0.39430422  0.19754315    -0.84500
O139        O  0.18443299  0.45200353  0.25929327    -0.79400
O140        O  0.18679552  0.26861926  0.24883306    -0.81200
O141        O  0.13516475  0.37227703  0.35997437    -0.83900
C142        C  0.20911871  0.44405353  0.27319221     0.96900
C143        C  0.16729099  0.37812303  0.17911311     1.04300
O144        O  0.16412743  0.35475548  0.28403974    -1.12900
O145        O  0.10816432  0.31721303  0.27989944    -0.75300
O146        O  0.10812985  0.39475436  0.26206559    -0.78800
O147        O  0.21726232  0.40258177  0.28658119    -0.79500
C148        C  0.09569086  0.35549583  0.26673279     0.95800
O149        O  0.14874597  0.43921540  0.32732516    -0.77500
O150        O  0.15360427  0.24943965  0.28924535    -0.82600
C151        C  0.20304778  0.30191215  0.36766168     0.98400
C152        C  0.17065901  0.23811261  0.26276833     1.04300
O153        O  0.21423132  0.31127805  0.33265663    -0.78300
C154        C  0.14172815  0.41704153  0.36113795     1.02600
Fe155      Fe  0.34357478  0.00590466  0.72838766     1.65800
Fe156      Fe  0.34099289  0.11055517  0.67279859     1.73200
Fe157      Fe  0.29459972  0.08606645  0.74207445     1.54400
O158        O  0.27423268  0.02300636  0.72251874    -0.82000
O159        O  0.32983777  0.17361715  0.70410547    -0.80300
O160        O  0.30768530  0.97025464  0.73772856    -0.84500
O161        O  0.35018668  0.02339424  0.79480129    -0.79400
O162        O  0.27631840  0.12044355  0.68287953    -0.81200
O163        O  0.37798901  0.11161300  0.71145132    -0.83900
C164        C  0.33308956  0.03725347  0.81997068     0.96900
C165        C  0.28255039  0.98024579  0.73112477     1.04300
O166        O  0.32623989  0.06760389  0.71460801    -1.12900
O167        O  0.35287248  0.05415540  0.63384589    -0.75300
O168        O  0.33717110  0.98684444  0.66200609    -0.78800
O169        O  0.31016611  0.05503025  0.80407067    -0.79500
C170        C  0.34505622  0.01037640  0.62971654     0.95800
O171        O  0.38227082  0.03230475  0.72173663    -0.77500
O172        O  0.30511522  0.11058359  0.63225304    -0.82600
C173        C  0.31993913  0.18357834  0.74004497     0.98400
C174        C  0.28251743  0.12382477  0.64286928     1.04300
O175        O  0.31197523  0.15037265  0.76452520    -0.78300
C176        C  0.39250591  0.07448055  0.72088560     1.02600
C177        C  0.24733892  0.15574109  0.52842632    -0.11700
C178        C  0.24959520  0.20639123  0.53003708     0.14800
C179        C  0.25861937  0.22855971  0.57178192     0.01700
C180        C  0.26518372  0.19996154  0.61018436    -0.16100
C181        C  0.26490875  0.14944910  0.60760806    -0.10900
C182        C  0.25567749  0.12712987  0.56629252     0.08400
C183        C  0.24085942  0.23510612  0.48854022     0.09500
S184        S  0.26474554  0.29261909  0.57778186    -0.25200
H185        H  0.27331941  0.21722931  0.64141106     0.19700
S186        S  0.25559490  0.06242138  0.55933383    -0.30900
H187        H  0.23971157  0.13824624  0.49709999     0.10000
C188        C  0.25109236  0.22669276  0.44728257     0.03200
C189        C  0.23995937  0.25180221  0.40831863    -0.13200
C190        C  0.21928631  0.28590123  0.40998404    -0.08900
C191        C  0.21105276  0.29729950  0.45214523     0.06700
C192        C  0.22111049  0.27077972  0.49026943    -0.14000
S193        S  0.27825917  0.18417916  0.44393415    -0.30900
H194        H  0.24644557  0.24323294  0.37617335     0.10900
S195        S  0.18755282  0.34520105  0.45959774    -0.28000
H196        H  0.21327162  0.27791681  0.52166877     0.08200
H197        H  0.25520838  0.05079434  0.60496590     0.26600
H198        H  0.27883623  0.18787756  0.39725587     0.21400
H199        H  0.19494452  0.37445359  0.42459596     0.26700
H200        H  0.27265268  0.29933947  0.53478678     0.15600
C201        C  0.28606464  0.63778126  0.30647765    -0.11700
C202        C  0.28707067  0.60078931  0.27495326     0.14800
C203        C  0.30378873  0.60680646  0.24060728     0.01700
C204        C  0.31686034  0.65115225  0.23590884    -0.16100
C205        C  0.31321884  0.69025475  0.26420262    -0.10900
C206        C  0.29914772  0.68220891  0.30175508     0.08400
C207        C  0.26774013  0.55968780  0.27509063     0.09500
S208        S  0.30769939  0.56044031  0.19988266    -0.25200
H209        H  0.32825763  0.65616933  0.20786767     0.19700
S210        S  0.29696703  0.72902939  0.34298163    -0.30900
H211        H  0.27367240  0.63278343  0.33330488     0.10000
C212        C  0.26994315  0.52451793  0.30951447     0.03200
C213        C  0.25073556  0.48698125  0.30803852    -0.13200
C214        C  0.22895654  0.48436965  0.27327323    -0.08900
C215        C  0.22672240  0.52007745  0.23898242     0.06700
C216        C  0.24611569  0.55705989  0.24031762    -0.14000
S217        S  0.29754732  0.52685639  0.35474027    -0.30900
H218        H  0.25250960  0.45979794  0.33431607     0.10900
S219        S  0.20034496  0.51773656  0.19162583    -0.28000
H220        H  0.24456908  0.58411823  0.21390382     0.08200
H221        H  0.28270519  0.70186851  0.37204765     0.26600
H222        H  0.28927673  0.48724671  0.37923123     0.21400
H223        H  0.20279821  0.56603952  0.17788040     0.26700
H224        H  0.30271067  0.52122004  0.22766606     0.15600
C225        C  0.21376481  0.02363616  0.19487057    -0.11700
C226        C  0.22018060  0.06013133  0.22694075     0.14800
C227        C  0.24544626  0.05840077  0.25434495     0.01700
C228        C  0.26324480  0.02026909  0.24988114    -0.16100
C229        C  0.25710273  0.98372338  0.21772053    -0.10900
C230        C  0.23201808  0.98579311  0.18957917     0.08400
C231        C  0.20068841  0.10018266  0.23122148     0.09500
S232        S  0.25653163  0.10421016  0.29532031    -0.25200
H233        H  0.28224094  0.01928828  0.27196284     0.19700
S234        S  0.22356448  0.94213955  0.14539551    -0.30900
H235        H  0.19450087  0.02524716  0.17366051     0.10000
C236        C  0.19514075  0.13553528  0.19726549     0.03200
C237        C  0.18196245  0.17839748  0.20672612    -0.13200
C238        C  0.17412330  0.18697413  0.24944508    -0.08900
C239        C  0.17690055  0.14899289  0.28153780     0.06700
C240        C  0.19020963  0.10631720  0.27215269    -0.14000
S241        S  0.20754810  0.12899999  0.14360354    -0.30900
H242        H  0.17980904  0.20715518  0.18190298     0.10900
S243        S  0.16731134  0.15511119  0.33712017    -0.28000
H244        H  0.19397656  0.07887970  0.29810465     0.08200
H245        H  0.19760456  0.96002504  0.13001095     0.26600
H246        H  0.19304366  0.16797566  0.12210172     0.21400
H247        H  0.14085200  0.17025309  0.32126315     0.26700
H248        H  0.24448335  0.14324840  0.27014553     0.15600
C249        C  0.30507879  0.92049579  0.43155239    -0.11700
C250        C  0.33150915  0.92367224  0.45397058     0.14800
C251        C  0.35341644  0.90854649  0.43202776     0.01700
C252        C  0.34849761  0.89234938  0.38771108    -0.16100
C253        C  0.32223327  0.89233013  0.36396332    -0.10900
C254        C  0.30018333  0.90520383  0.38686084     0.08400
C255        C  0.33569674  0.94593861  0.49895191     0.09500
S256        S  0.38819603  0.91199373  0.45754186    -0.25200
H257        H  0.36561092  0.88226038  0.37074438     0.19700
S258        S  0.26584757  0.90811939  0.35974259    -0.30900
H259        H  0.28822208  0.93202976  0.44848289     0.10000
C260        C  0.33163042  0.99584293  0.50412781     0.03200
C261        C  0.33575525  0.01597083  0.54713782    -0.13200
C262        C  0.34400966  0.98737829  0.58521213    -0.08900
C263        C  0.34897292  0.93758792  0.57967695     0.06700
C264        C  0.34442227  0.91732782  0.53669507    -0.14000
S265        S  0.32162032  0.03415463  0.45587164    -0.30900
H266        H  0.33190723  0.05407384  0.55125517     0.10900
S267        S  0.36205741  0.89848711  0.62556942    -0.28000
H268        H  0.34804843  0.87912431  0.53248266     0.08200
H269        H  0.26496287  0.85860898  0.34925707     0.26600
H270        H  0.31929227  0.07727967  0.47968947     0.21400
H271        H  0.37864216  0.93395076  0.64860525     0.26700
H272        H  0.38535004  0.95451548  0.48192382     0.15600
C273        C  0.32957449  0.03217624  0.94626552    -0.11700
C274        C  0.34942485  0.99733046  0.95943740     0.14800
C275        C  0.36607944  0.98091346  0.92812681     0.01700
C276        C  0.36093236  0.99615794  0.88348849    -0.16100
C277        C  0.33988171  0.02883751  0.86914729    -0.10900
C278        C  0.32513668  0.04914094  0.90187532     0.08400
C279        C  0.35020862  0.97442886  0.00412493     0.09500
S280        S  0.39361527  0.93919192  0.94281016    -0.25200
H281        H  0.37313325  0.98098104  0.85959428     0.19700
S282        S  0.30078202  0.09695274  0.88978070    -0.30900
H283        H  0.31712086  0.04561770  0.97061501     0.10000
C284        C  0.35848169  0.99972682  0.04413517     0.03200
C285        C  0.35803067  0.97619852  0.08556509    -0.13200
C286        C  0.34966720  0.92777582  0.08769671    -0.08900
C287        C  0.34157399  0.90260640  0.04728097     0.06700
C288        C  0.34182554  0.92622639  0.00613715    -0.14000
S289        S  0.36998744  0.06152805  0.04236099    -0.30900
H290        H  0.36416039  0.99556163  0.11649878     0.10900
S291        S  0.32837356  0.84199933  0.04594945    -0.28000
H292        H  0.33508338  0.90704454  0.97527039     0.08200
H293        H  0.31653068  0.12252951  0.86176097     0.26600
H294        H  0.37475768  0.06845117  0.08914968     0.21400
H295        H  0.35325644  0.82191616  0.06448297     0.26700
H296        H  0.39927763  0.95347974  0.98798561     0.15600
C297        C  0.27484937  0.69671328  0.04346015    -0.11700
C298        C  0.25316749  0.71731083  0.01594221     0.14800
C299        C  0.24139447  0.76051094  0.02937674     0.01700
C300        C  0.25252279  0.78315019  0.06939315    -0.16100
C301        C  0.27477583  0.76287416  0.09639471    -0.10900
C302        C  0.28558949  0.71848139  0.08355312     0.08400
C303        C  0.24295646  0.69054544  0.97483118     0.09500
S304        S  0.21246883  0.78854099  0.99712287    -0.25200
H305        H  0.24413785  0.81704858  0.07904143     0.19700
S306        S  0.31297617  0.68829691  0.11813615    -0.30900
H307        H  0.28343707  0.66325229  0.03319460     0.10000
C308        C  0.24740036  0.70652821  0.93167130     0.03200
C309        C  0.23742563  0.67892354  0.89403002    -0.13200
C310        C  0.22349808  0.63550891  0.89910902    -0.08900
C311        C  0.22105428  0.61778368  0.94265969     0.06700
C312        C  0.23068137  0.64564773  0.98000156    -0.14000
S313        S  0.26546219  0.76207904  0.92451792    -0.30900
H314        H  0.23897965  0.69261213  0.86055906     0.10900
S315        S  0.20551864  0.55975268  0.95084157    -0.28000
H316        H  0.22851584  0.63272412  0.01350590     0.08200
H317        H  0.31121325  0.64389868  0.09531276     0.26600
H318        H  0.26598461  0.75784346  0.87788750     0.21400
H319        H  0.20511721  0.56374385  0.99750084     0.26700
H320        H  0.20172098  0.74652795  0.97555649     0.15600
C321        C  0.13760077  0.47631795  0.98672925    -0.11700
C322        C  0.15445989  0.43582866  0.99369098     0.14800
C323        C  0.16579535  0.41618202  0.95706433     0.01700
C324        C  0.16090494  0.43858559  0.91483414    -0.16100
C325        C  0.14436760  0.47992012  0.90759938    -0.10900
C326        C  0.13211045  0.49811075  0.94431088     0.08400
C327        C  0.15963891  0.41531569  0.03968854     0.09500
S328        S  0.18711367  0.36330268  0.96210315    -0.25200
H329        H  0.17063187  0.42388052  0.88757933     0.19700
S330        S  0.10892437  0.54827236  0.93977870    -0.30900
H331        H  0.12853470  0.49101528  0.01472726     0.10000
C332        C  0.18417105  0.42368218  0.06766198     0.03200
C333        C  0.18709016  0.40720681  0.11239131    -0.13200
C334        C  0.16575342  0.38344640  0.12986406    -0.08900
C335        C  0.14173809  0.37304797  0.10104108     0.06700
C336        C  0.13886919  0.38940467  0.05648242    -0.14000
S337        S  0.21095521  0.45832813  0.04743073    -0.30900
H338        H  0.20534881  0.41562560  0.13465173     0.10900
S339        S  0.11394910  0.33959972  0.11931829    -0.28000
H340        H  0.12012563  0.38253249  0.03483782     0.08200
H341        H  0.09436869  0.53213844  0.89924177     0.26600
H342        H  0.22879268  0.45777605  0.08778505     0.21400
H343        H  0.12990968  0.31235199  0.15241469     0.26700
H344        H  0.17586455  0.34168488  0.99796637     0.15600
C345        C  0.12948164  0.52595993  0.55617338    -0.11700
C346        C  0.15031943  0.50334943  0.53683810     0.14800
C347        C  0.17607769  0.49805434  0.56222446     0.01700
C348        C  0.18023617  0.51437774  0.60653872    -0.16100
C349        C  0.15895830  0.53418182  0.62681229    -0.10900
C350        C  0.13351233  0.54141358  0.60087167     0.08400
C351        C  0.14479247  0.48520569  0.49033757     0.09500
S352        S  0.20404644  0.46832495  0.54105730    -0.25200
H353        H  0.19975874  0.50853096  0.62625200     0.19700
S354        S  0.10550626  0.57020829  0.62278737    -0.30900
H355        H  0.10988153  0.53097578  0.53646903     0.10000
C356        C  0.12853615  0.44409194  0.47998273     0.03200
C357        C  0.12680189  0.42420863  0.43682749    -0.13200
C358        C  0.14160816  0.44369327  0.40401413    -0.08900
C359        C  0.15735714  0.48598474  0.41454929     0.06700
C360        C  0.15818863  0.50667978  0.45708030    -0.14000
S361        S  0.11149874  0.41489357  0.52255918    -0.30900
H362        H  0.11457411  0.39224265  0.42917262     0.10900
S363        S  0.17893092  0.51326643  0.37748884    -0.28000
H364        H  0.17080082  0.53815297  0.46532896     0.08200
H365        H  0.12151264  0.59959788  0.65384828     0.26600
H366        H  0.10052328  0.37615393  0.49598809     0.21400
H367        H  0.19244776  0.46980048  0.37077701     0.26700
H368        H  0.18822405  0.43464496  0.51445708     0.15600
C369        C  0.24841463  0.86431941  0.76489660    -0.11700
C370        C  0.22335080  0.86625778  0.73766560     0.14800
C371        C  0.21729638  0.90712941  0.70970257     0.01700
C372        C  0.23695214  0.94338132  0.70780997    -0.16100
C373        C  0.26235299  0.94091154  0.73441380    -0.10900
C374        C  0.26757520  0.90131475  0.76441561     0.08400
C375        C  0.20465146  0.82435522  0.73960116     0.09500
S376        S  0.18488429  0.91576323  0.67625838    -0.25200
H377        H  0.23228755  0.97392352  0.68544767     0.19700
S378        S  0.29750097  0.89683791  0.80498265    -0.30900
H379        H  0.25298531  0.83375442  0.78730573     0.10000
C380        C  0.19961531  0.79133194  0.70383081     0.03200
C381        C  0.18644785  0.74737896  0.71057099    -0.13200
C382        C  0.17842899  0.73498337  0.75258724    -0.08900
C383        C  0.18163608  0.77017041  0.78721101     0.06700
C384        C  0.19482900  0.81389020  0.78039201    -0.14000
S385        S  0.21245779  0.80255745  0.65104391    -0.30900
H386        H  0.18406894  0.72106397  0.68377505     0.10900
S387        S  0.17224111  0.75997377  0.84255181    -0.28000
H388        H  0.19861007  0.83918808  0.80796326     0.08200
H389        H  0.29737619  0.94583267  0.81724333     0.26600
H390        H  0.20024494  0.76243716  0.62799318     0.21400
H391        H  0.14524591  0.74852971  0.82613718     0.26700
H392        H  0.16984565  0.88666590  0.70257297     0.15600
C393        C  0.24395062  0.36138758  0.73860869    -0.11700
C394        C  0.26836086  0.36356519  0.76753059     0.14800
C395        C  0.27344854  0.40391264  0.79609590     0.01700
C396        C  0.25363100  0.43998342  0.79614252    -0.16100
C397        C  0.22896166  0.43760904  0.76742767    -0.10900
C398        C  0.22457057  0.39801267  0.73753732     0.08400
C399        C  0.28756852  0.32266172  0.76623357     0.09500
S400        S  0.30474506  0.41190569  0.83284212    -0.25200
H401        H  0.25760020  0.47033185  0.81872777     0.19700
S402        S  0.19554579  0.39302369  0.69522413    -0.30900
H403        H  0.24014380  0.33101559  0.71596451     0.10000
C404        C  0.29084252  0.28711537  0.80024509     0.03200
C405        C  0.30428133  0.24385644  0.79279579    -0.13200
C406        C  0.31453312  0.23495057  0.75181982    -0.08900
C407        C  0.31394776  0.27345556  0.72018101     0.06700
C408        C  0.30000503  0.31607785  0.72732814    -0.14000
S409        S  0.27564029  0.29458398  0.85133675    -0.30900
H410        H  0.30504497  0.21550768  0.81789975     0.10900
S411        S  0.32901646  0.27022900  0.66876204    -0.28000
H412        H  0.29801197  0.34384814  0.70152232     0.08200
H413        H  0.19573987  0.44202228  0.68276039     0.26600
H414        H  0.28755087  0.25380846  0.87396203     0.21400
H415        H  0.35353718  0.25099436  0.68998481     0.26700
H416        H  0.32096243  0.38362479  0.80817312     0.15600
C417        C  0.02192567  0.39271213  0.26332689    -0.11700
C418        C  0.00846276  0.35511821  0.23856133     0.14800
C419        C  0.02387716  0.31748235  0.22267559     0.01700
C420        C  0.05219581  0.31757797  0.23317661    -0.16100
C421        C  0.06567311  0.35536206  0.25792578    -0.10900
C422        C  0.05012233  0.39305389  0.27352987     0.08400
C423        C  0.97837515  0.35646493  0.23063931     0.09500
S424        S  0.00874550  0.26904823  0.18806940    -0.25200
H425        H  0.06385438  0.28867024  0.22082530     0.19700
S426        S  0.06483602  0.44132135  0.30878397    -0.30900
H427        H  0.01025120  0.42153447  0.27581703     0.10000
C428        C  0.96224676  0.32451010  0.25270894     0.03200
C429        C  0.93385067  0.32834079  0.24498742    -0.13200
C430        C  0.92120522  0.36420669  0.21638511    -0.08900
C431        C  0.93754116  0.39601551  0.19422718     0.06700
C432        C  0.96577964  0.39212836  0.20197241    -0.14000
S433        S  0.97783897  0.28036160  0.29229293    -0.30900
H434        H  0.92143084  0.30410551  0.26210267     0.10900
S435        S  0.92366539  0.44101143  0.15416022    -0.28000
H436        H  0.97809874  0.41675588  0.18499565     0.08200
H437        H  0.08326412  0.41126509  0.33524605     0.26600
H438        H  0.95370857  0.26075633  0.30444162     0.21400
H439        H  0.90291932  0.41097245  0.13372246     0.26700
H440        H  0.98616983  0.29527521  0.16819480     0.15600
C441        C  0.46757803  0.05270007  0.75640128    -0.11700
C442        C  0.47895511  0.08623055  0.72904047     0.14800
C443        C  0.46193167  0.11766084  0.70124213     0.01700
C444        C  0.43390122  0.11461279  0.70113323    -0.16100
C445        C  0.42230597  0.08012974  0.72753897    -0.10900
C446        C  0.43952985  0.04964709  0.75635643     0.08400
C447        C  0.50868631  0.08799898  0.73105501     0.09500
S448        S  0.47462516  0.16190068  0.66473441    -0.25200
H449        H  0.42099711  0.13810393  0.67875218     0.19700
S450        S  0.42715562  0.00751134  0.79502138    -0.30900
H451        H  0.48070880  0.02918859  0.77840758     0.10000
C452        C  0.52412739  0.12312281  0.75663651     0.03200
C453        C  0.55240452  0.12185140  0.75940991    -0.13200
C454        C  0.56559282  0.08593239  0.73731214    -0.08900
C455        C  0.54984639  0.05225386  0.70984247     0.06700
C456        C  0.52163264  0.05323414  0.70759868    -0.14000
S457        S  0.50786798  0.16797361  0.78755539    -0.33300
H458        H  0.56432387  0.14753682  0.78073072     0.10900
S459        S  0.56435882  0.00781313  0.67627911    -0.28000
H460        H  0.50960901  0.02680794  0.68724893     0.08200
H461        H  0.40611022  0.03762922  0.80534179     0.26600
H462        H  0.53157164  0.19239094  0.80553525     0.21400
H463        H  0.58642863  0.03667706  0.66782162     0.26700
H464        H  0.49791618  0.13635274  0.65700601     0.15600
C465        C  0.70951826  0.17795358  0.97934372    -0.11700
C466        C  0.73390626  0.20304159  0.97903453     0.14800
C467        C  0.74903043  0.19612270  0.94263279     0.01700
C468        C  0.73757534  0.17011585  0.90484660    -0.16100
C469        C  0.71217692  0.14772823  0.90394526    -0.10900
C470        C  0.69906503  0.14884423  0.94335568     0.08400
C471        C  0.74300306  0.23450051  0.01811214     0.09500
S472        S  0.78309805  0.21842824  0.94258197    -0.25200
H473        H  0.74837250  0.16814574  0.87575182     0.19700
S474        S  0.66916775  0.11309779  0.94927711    -0.30900
H475        H  0.69843786  0.18157471  0.00795944     0.10000
C476        C  0.74880082  0.28410671  0.01327098     0.03200
C477        C  0.75951359  0.31056048  0.05123394    -0.13200
C478        C  0.76263617  0.28941967  0.09421405    -0.08900
C479        C  0.75385308  0.24161278  0.09961218     0.06700
C480        C  0.74468921  0.21436018  0.06148271    -0.14000
S481        S  0.74213630  0.31413040  0.95933066    -0.30900
H482        H  0.76618105  0.34744909  0.04743071     0.10900
S483        S  0.75608172  0.21400429  0.15465519    -0.28000
H484        H  0.73940773  0.17674240  0.06530083     0.08200
H485        H  0.66909474  0.11993073  0.99572575     0.26600
H486        H  0.74953549  0.36088419  0.97454134     0.21400
H487        H  0.74499131  0.16897220  0.14066486     0.26700
H488        H  0.78988825  0.21826259  0.98955636     0.15600
C489        C  0.52266946  0.82946863  0.23775102    -0.11700
C490        C  0.50938576  0.86595820  0.25876532     0.14800
C491        C  0.52493753  0.90248254  0.28262963     0.01700
C492        C  0.55309660  0.90259596  0.28354484    -0.16100
C493        C  0.56651089  0.86630087  0.26231474    -0.10900
C494        C  0.55091410  0.82939516  0.23893667     0.08400
C495        C  0.47933317  0.86562243  0.25387185     0.09500
S496        S  0.51031568  0.94955456  0.31331093    -0.25200
H497        H  0.56473472  0.93068670  0.30225260     0.19700
S498        S  0.56553136  0.78260025  0.20815482    -0.30900
H499        H  0.51083666  0.80149021  0.21922307     0.10000
C500        C  0.46391721  0.90120278  0.22843560     0.03200
C501        C  0.43557200  0.89944980  0.22484079    -0.13200
C502        C  0.42209242  0.86220994  0.24518029    -0.08900
C503        C  0.43766584  0.82665277  0.27071691     0.06700
C504        C  0.46600431  0.82857530  0.27447616    -0.14000
S505        S  0.48023576  0.94732868  0.19846088    -0.30900
H506        H  0.42378285  0.92626945  0.20455196     0.10900
S507        S  0.42273074  0.77881632  0.30032051    -0.28000
H508        H  0.47782352  0.80124505  0.29410716     0.08200
H509        H  0.58501172  0.81281912  0.19221921     0.26600
H510        H  0.45652785  0.97105718  0.17946901     0.21400
H511        H  0.40130716  0.80706168  0.31219244     0.26700
H512        H  0.48703396  0.92392817  0.32143140     0.15600
C513        C  0.74832285  0.58890189  0.20744452    -0.11700
C514        C  0.72064483  0.57767349  0.20387375     0.14800
C515        C  0.71260929  0.52897573  0.19748470     0.01700
C516        C  0.73235706  0.49263781  0.19874752    -0.16100
C517        C  0.76029053  0.50352650  0.20395084    -0.10900
C518        C  0.76801793  0.55299196  0.20620294     0.08400
C519        C  0.70118103  0.61809535  0.20711204     0.09500
S520        S  0.67757832  0.51082414  0.18687333    -0.25200
H521        H  0.72567712  0.45541262  0.19555206     0.19700
S522        S  0.80235233  0.57355522  0.20582626    -0.30900
H523        H  0.75466749  0.62633436  0.21082703     0.10000
C524        C  0.68680551  0.62348303  0.24446964     0.03200
C525        C  0.67291171  0.66692347  0.25005321    -0.13200
C526        C  0.67373045  0.70585003  0.21980622    -0.08900
C527        C  0.68533906  0.69765065  0.17964514     0.06700
C528        C  0.69928374  0.65457480  0.17428055    -0.14000
S529        S  0.68886217  0.57778875  0.28799136    -0.30900
H530        H  0.66393849  0.67232490  0.28067284     0.10900
S531        S  0.68388169  0.74117069  0.13441983    -0.28000
H532        H  0.70954491  0.65005924  0.14479421     0.08200
H533        H  0.80710158  0.54332676  0.17002817     0.26600
H534        H  0.67046587  0.59925908  0.31378109     0.21400
H535        H  0.65907330  0.76135284  0.14261988     0.26700
H536        H  0.66777935  0.55468909  0.16744567     0.15600
C537        C  0.78723328  0.15230921  0.29389708    -0.11700
C538        C  0.78608625  0.11697394  0.26034102     0.14800
C539        C  0.80043794  0.12505388  0.22322644     0.01700
C540        C  0.81282865  0.16991547  0.21792198    -0.16100
C541        C  0.81148150  0.20746432  0.24904431    -0.10900
C542        C  0.80019780  0.19695011  0.28921044     0.08400
C543        C  0.76671937  0.07581169  0.26147566     0.09500
S544        S  0.80224390  0.08054692  0.17998831    -0.25200
H545        H  0.82183050  0.17651182  0.18741990     0.19700
S546        S  0.80152784  0.24015524  0.33451801    -0.30900
H547        H  0.77666009  0.14584973  0.32274501     0.10000
C548        C  0.76931682  0.04024917  0.29569561     0.03200
C549        C  0.74990217  0.00291989  0.29489211    -0.13200
C550        C  0.72786253  0.00030895  0.26054796    -0.08900
C551        C  0.72585054  0.03551058  0.22587916     0.06700
C552        C  0.74477561  0.07306677  0.22729621    -0.14000
S553        S  0.79769679  0.04160131  0.33961014    -0.30900
H554        H  0.75176879  0.97579829  0.32124110     0.10900
S555        S  0.70084610  0.03303885  0.17702948    -0.28000
H556        H  0.74269472  0.10005236  0.20077711     0.08200
H557        H  0.79077325  0.20983282  0.36562029     0.26600
H558        H  0.79101747  0.99926857  0.36191224     0.21400
H559        H  0.70134608  0.98247363  0.17322820     0.26700
H560        H  0.79933424  0.04014766  0.20759969     0.15600
C561        C  0.65926327  0.95863420  0.96155736    -0.11700
C562        C  0.63550265  0.95615990  0.98189522     0.14800
C563        C  0.61128008  0.97590345  0.95911107     0.01700
C564        C  0.61168151  0.99865741  0.91733773    -0.16100
C565        C  0.63552641  0.00053662  0.89716580    -0.10900
C566        C  0.65953561  0.98017113  0.91963471     0.08400
C567        C  0.63808410  0.93981488  0.02937338     0.09500
S568        S  0.57924509  0.97261463  0.98106733    -0.25200
H569        H  0.59317930  0.01384388  0.89996659     0.19700
S570        S  0.69166003  0.98248114  0.89786296    -0.30900
H571        H  0.67813803  0.94539260  0.97936489     0.10000
C572        C  0.65051471  0.89556991  0.04368283     0.03200
C573        C  0.65710023  0.88632531  0.08984406    -0.13200
C574        C  0.65049593  0.91947558  0.12195293    -0.08900
C575        C  0.63667057  0.96262051  0.10728630     0.06700
C576        C  0.63114636  0.97241857  0.06146987    -0.14000
S577        S  0.65734277  0.85035422  0.00334980    -0.30900
H578        H  0.66694667  0.85278788  0.10104547     0.10900
S579        S  0.62573838  0.00784664  0.14431287    -0.28000
H580        H  0.62206376  0.00678018  0.05073434     0.08200
H581        H  0.68770619  0.02817190  0.87755738     0.26600
H582        H  0.66794935  0.81515559  0.03470322     0.21400
H583        H  0.64739803  0.00295247  0.17867561     0.26700
H584        H  0.58523879  0.93043769  0.00669819     0.15600
C585        C  0.64245352  0.03290035  0.55199529    -0.11700
C586        C  0.66060778  0.99848256  0.53934239     0.14800
C587        C  0.68306210  0.98434860  0.57026511     0.01700
C588        C  0.68660465  0.00432066  0.61329196    -0.16100
C589        C  0.66765205  0.03673122  0.62668199    -0.10900
C590        C  0.64563875  0.05194078  0.59540672     0.08400
C591        C  0.65630025  0.97911976  0.49325030     0.09500
S592        S  0.70695117  0.93891877  0.55787235    -0.25200
H593        H  0.70313362  0.99166888  0.63755620     0.19700
S594        S  0.62079112  0.09490405  0.60913907    -0.30900
H595        H  0.62553701  0.04453797  0.52802290     0.10000
C596        C  0.63426025  0.94856711  0.47855129     0.03200
C597        C  0.63209459  0.92887891  0.43521381    -0.13200
C598        C  0.65158617  0.93912277  0.40655917    -0.08900
C599        C  0.67377967  0.96943661  0.42184258     0.06700
C600        C  0.67550218  0.98985530  0.46446490    -0.14000
S601        S  0.60949500  0.93325406  0.51542793    -0.30900
H602        H  0.61519300  0.90556215  0.42353892     0.10900
S603        S  0.70156803  0.98112079  0.39005358    -0.28000
H604        H  0.69255641  0.01295531  0.47604676     0.08200
H605        H  0.63772681  0.11817079  0.64365464     0.26600
H606        H  0.59237435  0.90598517  0.48410287     0.21400
H607        H  0.70261673  0.93376730  0.37347893     0.26700
H608        H  0.68837749  0.91116445  0.52938025     0.15600
C609        C  0.96635791  0.61763098  0.71066077    -0.11700
C610        C  0.98034976  0.58523246  0.74131544     0.14800
C611        C  0.96549313  0.55685101  0.76902401     0.01700
C612        C  0.93712652  0.55841069  0.76266290    -0.16100
C613        C  0.92302255  0.58984111  0.73104056    -0.10900
C614        C  0.93808764  0.62084296  0.70575556     0.08400
C615        C  0.01032343  0.58213400  0.74341178     0.09500
S616        S  0.98140625  0.51842386  0.81346366    -0.25200
H617        H  0.92594778  0.53503227  0.78280807     0.19700
S618        S  0.92250673  0.66258541  0.66409219    -0.30900
H619        H  0.97756124  0.64012171  0.68979404     0.10000
C620        C  0.02349284  0.53917074  0.73349915     0.03200
C621        C  0.05191502  0.53721439  0.73979634    -0.13200
C622        C  0.06773738  0.57812890  0.75335593    -0.08900
C623        C  0.05414900  0.62271505  0.75752073     0.06700
C624        C  0.02586124  0.62370351  0.75403368    -0.14000
S625        S  0.00420842  0.48720540  0.71159046    -0.30900
H626        H  0.06177845  0.50330238  0.73452741     0.10900
S627        S  0.07115834  0.68008138  0.76615353    -0.28000
H628        H  0.01578980  0.65748282  0.75935276     0.08200
H629        H  0.91095742  0.69019162  0.69602441     0.26600
H630        H  0.02635246  0.45943342  0.70194086     0.21400
H631        H  0.08754823  0.67252809  0.73186563     0.26700
H632        H  0.00523172  0.54589269  0.82259053     0.15600
C633        C  0.73783604  0.70784151  0.41403918    -0.11700
C634        C  0.74216933  0.73104164  0.45587085     0.14800
C635        C  0.74030909  0.78207811  0.45719563     0.01700
C636        C  0.73119291  0.80754641  0.41766503    -0.16100
C637        C  0.72588397  0.78380521  0.37622641    -0.10900
C638        C  0.73057040  0.73373075  0.37435301     0.08400
C639        C  0.75047523  0.70075807  0.49630949     0.09500
S640        S  0.74923083  0.81699588  0.50761391    -0.25200
H641        H  0.72739037  0.84600066  0.41940984     0.19700
S642        S  0.72552696  0.70003653  0.32281380    -0.30900
H643        H  0.73995050  0.66894996  0.41227983     0.10000
C644        C  0.73646119  0.69998512  0.53450675     0.03200
C645        C  0.74747751  0.67417980  0.57311614    -0.13200
C646        C  0.77130344  0.64712317  0.57310562    -0.08900
C647        C  0.78275369  0.64241292  0.53250409     0.06700
C648        C  0.77284425  0.67046844  0.49534795    -0.14000
S649        S  0.70446687  0.73073381  0.53392895    -0.30900
H650        H  0.73815397  0.67656792  0.60372075     0.10900
S651        S  0.81006031  0.60066836  0.52728586    -0.28000
H652        H  0.78290120  0.66941228  0.46541274     0.08200
H653        H  0.73367441  0.73720499  0.29546707     0.26600
H654        H  0.70050381  0.71938102  0.57840868     0.21400
H655        H  0.80974372  0.60463747  0.48042539     0.26700
H656        H  0.76854041  0.78440412  0.52846256     0.15600
C657        C  0.86355525  0.42378798  0.42352396    -0.11700
C658        C  0.84298125  0.44522237  0.44430202     0.14800
C659        C  0.81675545  0.44992613  0.42037822     0.01700
C660        C  0.81187981  0.43386486  0.37595753    -0.16100
C661        C  0.83269147  0.41395467  0.35452127    -0.10900
C662        C  0.85862845  0.40750680  0.37918069     0.08400
C663        C  0.84935816  0.46174097  0.49111176     0.09500
S664        S  0.78872091  0.47692408  0.44386168    -0.25200
H665        H  0.79198406  0.43913725  0.35730918     0.19700
S666        S  0.88605901  0.37772588  0.35648840    -0.30900
H667        H  0.88350679  0.41927590  0.44218909     0.10000
C668        C  0.84068259  0.43557672  0.52688987     0.03200
C669        C  0.84383870  0.45577250  0.56990505    -0.13200
C670        C  0.85601317  0.50143421  0.57824520    -0.08900
C671        C  0.86756777  0.52470945  0.54291562     0.06700
C672        C  0.86352301  0.50514905  0.49962806    -0.14000
S673        S  0.82475936  0.37719262  0.51741274    -0.30900
H674        H  0.83555497  0.43664198  0.59659299     0.10900
S675        S  0.88762374  0.57905147  0.55030983    -0.28000
H676        H  0.87111049  0.52427746  0.47216067     0.08200
H677        H  0.86942933  0.34573058  0.32897250     0.26600
H678        H  0.82385016  0.36551951  0.56292013     0.21400
H679        H  0.90123767  0.56486864  0.59236678     0.26700
H680        H  0.80389425  0.50513166  0.47671490     0.15600
C681        C  0.84265237  0.51907272  0.02331559    -0.11700
C682        C  0.83306722  0.49100030  0.98583920     0.14800
C683        C  0.82945060  0.44077399  0.99119013     0.01700
C684        C  0.83358459  0.42043321  0.03416866    -0.16100
C685        C  0.84224230  0.44869297  0.07201318    -0.10900
C686        C  0.84757210  0.49841751  0.06634838     0.08400
C687        C  0.82836520  0.51451998  0.94123624     0.09500
S688        S  0.81986578  0.40049117  0.94467773    -0.25200
H689        H  0.82962640  0.38223662  0.03811488     0.19700
S690        S  0.86159377  0.53547832  0.11317180    -0.30900
H691        H  0.84621713  0.55725195  0.01865925     0.10000
C692        C  0.80252123  0.51590705  0.91579989     0.03200
C693        C  0.80013234  0.53094193  0.87073108    -0.13200
C694        C  0.82302298  0.54571853  0.85126692    -0.08900
C695        C  0.84819268  0.55010244  0.87878172     0.06700
C696        C  0.85067906  0.53360414  0.92311678    -0.14000
S697        S  0.77280306  0.49747736  0.94037641    -0.30900
H698        H  0.78070757  0.52865243  0.85003823     0.10900
S699        S  0.87794817  0.57593459  0.85933082    -0.28000
H700        H  0.87034956  0.53435973  0.94328970     0.08200
H701        H  0.86419151  0.57825504  0.08857233     0.26600
H702        H  0.75384157  0.50788928  0.90267105     0.21400
H703        H  0.86365930  0.60822503  0.82862845     0.26700
H704        H  0.83306300  0.42616352  0.91321766     0.15600
C705        C  0.78689260  0.79127781  0.79358140    -0.11700
C706        C  0.78117492  0.82623837  0.75977034     0.14800
C707        C  0.79147077  0.82031376  0.71834312     0.01700
C708        C  0.80517220  0.77775123  0.71031327    -0.16100
C709        C  0.80868086  0.74067790  0.74262370    -0.10900
C710        C  0.80059228  0.74870987  0.78555093     0.08400
C711        C  0.76155810  0.86484482  0.76643878     0.09500
S712        S  0.78553169  0.86350005  0.67289510    -0.25200
H713        H  0.81105646  0.77189456  0.67716849     0.19700
S714        S  0.80584482  0.70484450  0.83052475    -0.30900
H715        H  0.77933366  0.79599092  0.82562700     0.10000
C716        C  0.73434592  0.86121590  0.74720596     0.03200
C717        C  0.71647062  0.89918322  0.75238448    -0.13200
C718        C  0.72495563  0.94097363  0.77700974    -0.08900
C719        C  0.75205342  0.94275413  0.79875628     0.06700
C720        C  0.76999725  0.90504675  0.79272900    -0.14000
S721        S  0.72239616  0.80826603  0.71555746    -0.30900
H722        H  0.69590175  0.89666605  0.73582993     0.10900
S723        S  0.76527631  0.99132156  0.83492127    -0.28000
H724        H  0.79078218  0.90708523  0.80857093     0.08200
H725        H  0.82834756  0.68255909  0.81536625     0.26600
H726        H  0.69473107  0.82020288  0.71025694     0.21400
H727        H  0.74243072  0.99356005  0.85788679     0.26700
H728        H  0.78249682  0.90405360  0.69978167     0.15600
C729        C  0.75273678  0.35588130  0.70386755    -0.11700
C730        C  0.72562370  0.36618990  0.70814573     0.14800
C731        C  0.71710440  0.41473089  0.70750134     0.01700
C732        C  0.73598476  0.45174466  0.70405015    -0.16100
C733        C  0.76342492  0.44174255  0.70083521    -0.10900
C734        C  0.77155654  0.39277599  0.69959190     0.08400
C735        C  0.70746209  0.32539367  0.71626335     0.09500
S736        S  0.68264323  0.43187911  0.71208734    -0.25200
H737        H  0.72919837  0.48882575  0.70508062     0.19700
S738        S  0.80535328  0.37452257  0.69187470    -0.30900
H739        H  0.75933088  0.31858717  0.70411510     0.10000
C740        C  0.69871577  0.29182729  0.68228497     0.03200
C741        C  0.68550029  0.24933921  0.69334903    -0.13200
C742        C  0.68041358  0.24012894  0.73765865    -0.08900
C743        C  0.68753168  0.27568334  0.77088952     0.06700
C744        C  0.70108558  0.31761139  0.75991491    -0.14000
S745        S  0.70528226  0.30241579  0.62520373    -0.30900
H746        H  0.68030964  0.22204283  0.66794181     0.10900
S747        S  0.68330027  0.26661471  0.82911769    -0.28000
H748        H  0.70786468  0.34333252  0.78611501     0.08200
H749        H  0.80837588  0.41013062  0.65924984     0.26600
H750        H  0.69089168  0.26215896  0.60620292     0.21400
H751        H  0.65529328  0.25819806  0.81980738     0.26700
H752        H  0.67043844  0.38953652  0.69335625     0.15600
loop_ 
_geom_bond_atom_site_label_1 
_geom_bond_atom_site_label_2 
_geom_bond_distance 
_geom_bond_site_symmetry_2 
_ccdc_geom_bond_type 
Fe1          O17   2.084       .  S
Fe1           O7   2.035       .  S
Fe1          O14   2.041       .  S
Fe1           O6   2.085       .  S
Fe1          O12   1.957       .  S
Fe2           O5   2.086       .  S
Fe2           O9   2.051       .  S
Fe2          O13   2.096       .  S
Fe2          O18   2.023       .  S
Fe2          O12   1.950       .  S
Fe3          O21   2.044       .  S
Fe3           O8   2.098       .  S
Fe3          O15   2.100       .  S
Fe3           O4   2.054       .  S
Fe3          O12   1.956       .  S
O4           C11   1.263       .  A
O5           C19   1.274       .  A
O6           C11   1.268       .  A
O7           C10   1.272       .  A
O8           C20   1.275       .  A
O9           C22   1.261       .  A
C10          O15   1.281       .  A
C10         C694   1.475       .  S
C11         C733   1.493       .  S
O13          C16   1.279       .  A
O14          C16   1.272       .  A
C16         C670   1.489       .  S
O17          C22   1.268       .  A
O18          C20   1.263       .  A
C19          O21   1.265       .  A
C19         C709   1.478       .  S
C20         C646   1.480       .  S
C22         C613   1.486       .  S
Fe23         O39   2.026       .  S
Fe23         O29   2.096       .  S
Fe23         O36   2.081       .  S
Fe23         O28   2.025       .  S
Fe23         O34   1.947       .  S
Fe24         O27   2.029       .  S
Fe24         O31   2.104       .  S
Fe24         O35   2.061       .  S
Fe24         O40   2.104       .  S
Fe24         O34   1.946       .  S
Fe25         O43   2.100       .  S
Fe25         O30   2.051       .  S
Fe25         O37   2.067       .  S
Fe25         O26   2.115       .  S
Fe25         O34   1.944       .  S
O26          C33   1.285       .  A
O27          C41   1.264       .  A
O28          C33   1.267       .  A
O29          C32   1.270       .  A
O30          C42   1.268       .  A
O31          C44   1.280       .  A
C32          O37   1.264       .  A
C32         C550   1.491   1_565  S
C33         C574   1.474       .  S
O35          C38   1.266       .  A
O36          C38   1.269       .  A
C38         C493   1.486       .  S
O39          C44   1.268       .  A
O40          C42   1.278       .  A
C41          O43   1.277       .  A
C41         C637   1.466       .  S
C42         C526   1.499       .  S
C44         C598   1.473       .  S
Fe45         O61   2.081       .  S
Fe45         O51   2.029       .  S
Fe45         O58   2.026   1_545  S
Fe45         O50   2.077   1_545  S
Fe45         O56   1.947       .  S
Fe46         O49   2.085       .  S
Fe46         O53   2.046       .  S
Fe46         O57   2.107       .  S
Fe46         O62   2.016       .  S
Fe46         O56   1.942       .  S
Fe47         O65   2.053       .  S
Fe47         O52   2.109       .  S
Fe47         O59   2.110       .  S
Fe47         O48   2.059       .  S
Fe47         O56   1.944       .  S
O48          C55   1.263   1_545  A
O49          C63   1.272       .  A
O50          C55   1.268       .  A
O51          C54   1.271       .  A
O52          C64   1.280       .  A
O53          C66   1.262       .  A
C54          O59   1.283       .  A
C54         C589   1.464       .  S
C55         C718   1.497       .  S
O57          C60   1.279       .  A
O58          C60   1.267   1_565  A
C60         C565   1.466       .  S
O61          C66   1.268       .  A
O62          C64   1.262       .  A
C63          O65   1.267       .  A
C63         C742   1.481       .  S
C64         C469   1.485       .  S
C66         C454   1.479       .  S
Fe67         O83   2.034       .  S
Fe67         O73   2.091       .  S
Fe67         O80   2.092       .  S
Fe67         O72   2.036       .  S
Fe67         O78   1.945       .  S
Fe68         O71   2.036       .  S
Fe68         O75   2.096       .  S
Fe68         O79   2.063       .  S
Fe68         O84   2.104       .  S
Fe68         O78   1.942       .  S
Fe69         O87   2.095       .  S
Fe69         O74   2.052       .  S
Fe69         O81   2.067       .  S
Fe69         O70   2.102       .  S
Fe69         O78   1.943       .  S
O70          C77   1.280       .  A
O71          C85   1.264       .  A
O72          C77   1.269       .  A
O73          C76   1.270       .  A
O74          C86   1.268       .  A
O75          C88   1.278       .  A
C76          O81   1.267       .  A
C76         C517   1.502       .  S
C77         C661   1.474       .  S
O79          C82   1.267       .  A
O80          C82   1.272       .  A
C82         C430   1.486       .  S
O83          C88   1.267       .  A
O84          C86   1.279       .  A
C85          O87   1.275       .  A
C85         C478   1.469       .  S
C86         C541   1.499       .  S
C88         C685   1.475       .  S
Fe89        O105   2.098       .  S
Fe89         O95   2.043       .  S
Fe89        O102   2.054       .  S
Fe89         O94   2.085       .  S
Fe89        O100   1.947       .  S
Fe90         O93   2.090       .  S
Fe90         O97   2.047       .  S
Fe90        O101   2.088       .  S
Fe90        O106   2.018       .  S
Fe90        O100   1.944       .  S
Fe91        O109   2.058       .  S
Fe91         O96   2.099       .  S
Fe91        O103   2.093       .  S
Fe91         O92   2.065       .  S
Fe91        O100   1.950       .  S
O92          C99   1.268       .  A
O93         C107   1.271       .  A
O94          C99   1.271       .  A
O95          C98   1.270       .  A
O96         C108   1.277       .  A
O97         C110   1.265       .  A
C98         O103   1.278       .  A
C98         C349   1.471       .  S
C99         C397   1.492       .  S
O101        C104   1.273       .  A
O102        C104   1.269       .  A
C104        C325   1.494       .  S
O105        C110   1.276       .  A
O106        C108   1.263       .  A
C107        O109   1.268       .  A
C107        C382   1.497       .  S
C108        C310   1.468       .  S
C110        C622   1.498       .  S
Fe111       O127   2.042       .  S
Fe111       O117   2.070       .  S
Fe111       O124   2.074       .  S
Fe111       O116   2.039       .  S
Fe111       O122   1.954       .  S
Fe112       O115   2.025       .  S
Fe112       O119   2.101       .  S
Fe112       O123   2.061       .  S
Fe112       O128   2.096       .  S
Fe112       O122   1.950       .  S
Fe113       O131   2.102       .  S
Fe113       O118   2.047       .  S
Fe113       O125   2.070       .  S
Fe113       O114   2.107       .  S
Fe113       O122   1.953       .  S
O114        C121   1.284       .  A
O115        C129   1.263       .  A
O116        C121   1.275       .  A
O117        C120   1.265       .  A
O118        C130   1.266       .  A
O119        C132   1.281       .  A
C120        O125   1.263       .  A
C120        C229   1.494       .  S
C121        C253   1.480       .  S
O123        C126   1.263       .  A
O124        C126   1.265       .  A
C126        C502   1.485       .  S
O127        C132   1.273       .  A
O128        C130   1.275       .  A
C129        O131   1.278       .  A
C129        C301   1.476       .  S
C130        C205   1.490       .  S
C132        C286   1.476       .  S
Fe133       O149   2.039       .  S
Fe133       O139   2.075       .  S
Fe133       O146   2.072       .  S
Fe133       O138   2.045       .  S
Fe133       O144   1.957       .  S
Fe134       O137   2.035       .  S
Fe134       O141   2.095       .  S
Fe134       O145   2.069       .  S
Fe134       O150   2.093       .  S
Fe134       O144   1.956       .  S
Fe135       O153   2.098       .  S
Fe135       O140   2.055       .  S
Fe135       O147   2.066       .  S
Fe135       O136   2.107       .  S
Fe135       O144   1.958       .  S
O136        C143   1.281       .  A
O137        C151   1.264       .  A
O138        C143   1.272       .  A
O139        C142   1.266       .  A
O140        C152   1.270       .  A
O141        C154   1.280       .  A
C142        O147   1.265       .  A
C142        C214   1.489       .  S
C143        C334   1.476       .  S
O145        C148   1.266       .  A
O146        C148   1.266       .  A
C148        C421   1.485       .  S
O149        C154   1.269       .  A
O150        C152   1.275       .  A
C151        O153   1.275       .  A
C151        C190   1.482       .  S
C152        C238   1.489       .  S
C154        C358   1.486       .  S
Fe155       O171   2.092       .  S
Fe155       O161   2.037       .  S
Fe155       O168   2.047   1_545  S
Fe155       O160   2.089   1_545  S
Fe155       O166   1.935       .  S
Fe156       O159   2.096       .  S
Fe156       O163   2.048       .  S
Fe156       O167   2.086       .  S
Fe156       O172   2.029       .  S
Fe156       O166   1.934       .  S
Fe157       O175   2.056       .  S
Fe157       O162   2.112       .  S
Fe157       O169   2.101       .  S
Fe157       O158   2.067       .  S
Fe157       O166   1.940       .  S
O158        C165   1.270   1_545  A
O159        C173   1.273       .  A
O160        C165   1.273       .  A
O161        C164   1.269       .  A
O162        C174   1.279       .  A
O163        C176   1.268       .  A
C164        O169   1.278       .  A
C164        C277   1.487       .  S
C165        C373   1.492       .  S
O167        C170   1.274       .  A
O168        C170   1.267   1_565  A
C170        C262   1.476   1_545  S
O171        C176   1.274       .  A
O172        C174   1.264       .  A
C173        O175   1.268       .  A
C173        C406   1.500       .  S
C174        C181   1.466       .  S
C176        C445   1.480       .  S
C177        C178   1.407       .  A
C177        C182   1.401       .  A
C177        H187   1.083       .  S
C178        C183   1.491       .  S
C178        C179   1.417       .  A
C179        C180   1.399       .  A
C179        S184   1.805       .  S
C180        C181   1.401       .  A
C180        H185   1.084       .  S
C181        C182   1.410       .  A
C182        S186   1.805       .  S
C183        C188   1.417       .  A
C183        C192   1.401       .  A
S184        H200   1.407       .  S
S186        H197   1.407       .  S
C188        C189   1.409       .  A
C188        S193   1.808       .  S
C189        C190   1.404       .  A
C189        H194   1.082       .  S
C190        C191   1.415       .  A
C191        C192   1.394       .  A
C191        S195   1.804       .  S
C192        H196   1.083       .  S
S193        H198   1.407       .  S
S195        H199   1.408       .  S
C201        C202   1.402       .  A
C201        C206   1.406       .  A
C201        H211   1.083       .  S
C202        C207   1.489       .  S
C202        C203   1.413       .  A
C203        C204   1.403       .  A
C203        S208   1.804       .  S
C204        C205   1.405       .  A
C204        H209   1.081       .  S
C205        C206   1.417       .  A
C206        S210   1.809       .  S
C207        C212   1.410       .  A
C207        C216   1.402       .  A
S208        H224   1.406       .  S
S210        H221   1.407       .  S
C212        C213   1.408       .  A
C212        S217   1.805       .  S
C213        C214   1.407       .  A
C213        H218   1.082       .  S
C214        C215   1.417       .  A
C215        C216   1.403       .  A
C215        S219   1.809       .  S
C216        H220   1.083       .  S
S217        H222   1.407       .  S
S219        H223   1.407       .  S
C225        C226   1.406       .  A
C225        C230   1.411   1_545  A
C225        H235   1.082       .  S
C226        C231   1.492       .  S
C226        C227   1.413       .  A
C227        C228   1.398       .  A
C227        S232   1.806       .  S
C228        C229   1.407   1_545  A
C228        H233   1.084       .  S
C229        C230   1.417       .  A
C230        S234   1.807       .  S
C231        C236   1.411       .  A
C231        C240   1.405       .  A
S232        H248   1.406       .  S
S234        H245   1.407       .  S
C236        C237   1.405       .  A
C236        S241   1.806       .  S
C237        C238   1.407       .  A
C237        H242   1.083       .  S
C238        C239   1.417       .  A
C239        C240   1.403       .  A
C239        S243   1.800       .  S
C240        H244   1.084       .  S
S241        H246   1.407       .  S
S243        H247   1.407       .  S
C249        C250   1.402       .  A
C249        C254   1.399       .  A
C249        H259   1.084       .  S
C250        C255   1.476       .  S
C250        C251   1.409       .  A
C251        C252   1.396       .  A
C251        S256   1.805       .  S
C252        C253   1.407       .  A
C252        H257   1.085       .  S
C253        C254   1.415       .  A
C254        S258   1.799       .  S
C255        C260   1.409       .  A
C255        C264   1.402       .  A
S256        H272   1.406       .  S
S258        H269   1.407       .  S
C260        C261   1.398   1_565  A
C260        S265   1.808   1_565  S
C261        C262   1.404   1_545  A
C261        H266   1.083       .  S
C262        C263   1.415       .  A
C263        C264   1.400       .  A
C263        S267   1.803       .  S
C264        H268   1.084       .  S
S265        H270   1.407       .  S
S267        H271   1.407       .  S
C273        C274   1.402   1_545  A
C273        C278   1.400       .  A
C273        H283   1.084       .  S
C274        C279   1.476   1_556  S
C274        C275   1.407       .  A
C275        C276   1.394       .  A
C275        S280   1.805       .  S
C276        C277   1.410   1_565  A
C276        H281   1.084       .  S
C277        C278   1.418       .  A
C278        S282   1.802       .  S
C279        C284   1.407       .  A
C279        C288   1.401       .  A
S280        H296   1.406       .  S
S282        H293   1.408       .  S
C284        C285   1.403       .  A
C284        S289   1.806   1_565  S
C285        C286   1.406       .  A
C285        H290   1.083       .  S
C286        C287   1.414       .  A
C287        C288   1.395       .  A
C287        S291   1.799       .  S
C288        H292   1.084   1_554  S
S289        H294   1.407       .  S
S291        H295   1.407       .  S
C297        C298   1.394       .  A
C297        C302   1.391       .  A
C297        H307   1.084       .  S
C298        C303   1.475   1_554  S
C298        C299   1.416       .  A
C299        C300   1.406       .  A
C299        S304   1.804   1_554  S
C300        C301   1.403       .  A
C300        H305   1.084       .  S
C301        C302   1.418       .  A
C302        S306   1.808       .  S
C303        C308   1.409       .  A
C303        C312   1.401       .  A
S304        H320   1.405       .  S
S306        H317   1.407       .  S
C308        C309   1.403       .  A
C308        S313   1.806       .  S
C309        C310   1.404       .  A
C309        H314   1.083       .  S
C310        C311   1.412       .  A
C311        C312   1.396       .  A
C311        S315   1.811       .  S
C312        H316   1.083   1_556  S
S313        H318   1.407       .  S
S315        H319   1.407       .  S
C321        C322   1.401       .  A
C321        C326   1.400       .  A
C321        H331   1.084   1_556  S
C322        C327   1.481   1_556  S
C322        C323   1.409       .  A
C323        C324   1.401       .  A
C323        S328   1.805       .  S
C324        C325   1.411       .  A
C324        H329   1.083       .  S
C325        C326   1.420       .  A
C326        S330   1.802       .  S
C327        C332   1.410       .  A
C327        C336   1.401       .  A
S328        H344   1.405       .  S
S330        H341   1.408       .  S
C332        C333   1.404       .  A
C332        S337   1.806       .  S
C333        C334   1.404       .  A
C333        H338   1.083       .  S
C334        C335   1.413       .  A
C335        C336   1.399       .  A
C335        S339   1.804       .  S
C336        H340   1.084       .  S
S337        H342   1.407       .  S
S339        H343   1.407       .  S
C345        C346   1.402       .  A
C345        C350   1.399       .  A
C345        H355   1.084       .  S
C346        C351   1.477       .  S
C346        C347   1.413       .  A
C347        C348   1.396       .  A
C347        S352   1.805       .  S
C348        C349   1.401       .  A
C348        H353   1.084       .  S
C349        C350   1.414       .  A
C350        S354   1.805       .  S
C351        C356   1.408       .  A
C351        C360   1.398       .  A
S352        H368   1.404       .  S
S354        H365   1.407       .  S
C356        C357   1.401       .  A
C356        S361   1.807       .  S
C357        C358   1.407       .  A
C357        H362   1.082       .  S
C358        C359   1.422       .  A
C359        C360   1.396       .  A
C359        S363   1.803       .  S
C360        H364   1.084       .  S
S361        H366   1.407       .  S
S363        H367   1.408       .  S
C369        C370   1.403       .  A
C369        C374   1.400       .  A
C369        H379   1.084       .  S
C370        C375   1.492       .  S
C370        C371   1.415       .  A
C371        C372   1.406       .  A
C371        S376   1.804       .  S
C372        C373   1.409       .  A
C372        H377   1.084       .  S
C373        C374   1.418       .  A
C374        S378   1.804       .  S
C375        C380   1.410       .  A
C375        C384   1.403       .  A
S376        H392   1.405       .  S
S378        H389   1.407       .  S
C380        C381   1.407       .  A
C380        S385   1.806       .  S
C381        C382   1.410       .  A
C381        H386   1.082       .  S
C382        C383   1.421       .  A
C383        C384   1.402       .  A
C383        S387   1.801       .  S
C384        H388   1.084       .  S
S385        H390   1.407       .  S
S387        H391   1.408       .  S
C393        C394   1.402       .  A
C393        C398   1.399       .  A
C393        H403   1.084       .  S
C394        C399   1.488       .  S
C394        C395   1.414       .  A
C395        C396   1.406       .  A
C395        S400   1.804       .  S
C396        C397   1.409       .  A
C396        H401   1.084       .  S
C397        C398   1.418       .  A
C398        S402   1.803       .  S
C399        C404   1.408       .  A
C399        C408   1.402       .  A
S400        H416   1.405       .  S
S402        H413   1.406       .  S
C404        C405   1.406       .  A
C404        S409   1.806       .  S
C405        C406   1.412       .  A
C405        H410   1.082       .  S
C406        C407   1.421       .  A
C407        C408   1.402       .  A
C407        S411   1.801       .  S
C408        H412   1.084       .  S
S409        H414   1.407       .  S
S411        H415   1.408       .  S
C417        C418   1.401       .  A
C417        C422   1.399       .  A
C417        H427   1.084       .  S
C418        C423   1.488   1_455  S
C418        C419   1.416       .  A
C419        C420   1.405       .  A
C419        S424   1.803       .  S
C420        C421   1.405       .  A
C420        H425   1.084       .  S
C421        C422   1.417       .  A
C422        S426   1.803       .  S
C423        C428   1.411       .  A
C423        C432   1.402       .  A
S424        H440   1.405   1_455  S
S426        H437   1.406       .  S
C428        C429   1.408       .  A
C428        S433   1.806       .  S
C429        C430   1.405       .  A
C429        H434   1.083       .  S
C430        C431   1.417       .  A
C431        C432   1.400       .  A
C431        S435   1.803       .  S
C432        H436   1.084       .  S
S433        H438   1.407       .  S
S435        H439   1.405       .  S
C441        C442   1.402       .  A
C441        C446   1.399       .  A
C441        H451   1.084       .  S
C442        C447   1.475       .  S
C442        C443   1.410       .  A
C443        C444   1.398       .  A
C443        S448   1.805       .  S
C444        C445   1.407       .  A
C444        H449   1.084       .  S
C445        C446   1.415       .  A
C446        S450   1.803       .  S
C447        C452   1.407       .  A
C447        C456   1.401       .  A
S448        H464   1.405       .  S
S450        H461   1.407       .  S
C452        C453   1.401       .  A
C452        S457   1.807       .  S
C453        C454   1.407       .  A
C453        H458   1.083       .  S
C454        C455   1.415       .  A
C455        C456   1.399       .  A
C455        S459   1.803       .  S
C456        H460   1.084       .  S
S457        H462   1.407       .  S
S459        H463   1.406       .  S
C465        C466   1.399       .  A
C465        C470   1.396       .  A
C465        H475   1.083   1_556  S
C466        C471   1.486   1_556  S
C466        C467   1.417       .  A
C467        C468   1.403       .  A
C467        S472   1.804       .  S
C468        C469   1.405       .  A
C468        H473   1.083       .  S
C469        C470   1.422       .  A
C470        S474   1.813       .  S
C471        C476   1.413       .  A
C471        C480   1.405       .  A
S472        H488   1.406       .  S
S474        H485   1.407       .  S
C476        C477   1.403       .  A
C476        S481   1.808   1_554  S
C477        C478   1.403       .  A
C477        H482   1.083       .  S
C478        C479   1.408       .  A
C479        C480   1.399       .  A
C479        S483   1.806       .  S
C480        H484   1.083       .  S
S481        H486   1.407       .  S
S483        H487   1.407       .  S
C489        C490   1.404       .  A
C489        C494   1.403       .  A
C489        H499   1.084       .  S
C490        C495   1.485       .  S
C490        C491   1.413       .  A
C491        C492   1.399       .  A
C491        S496   1.806       .  S
C492        C493   1.407       .  A
C492        H497   1.084       .  S
C493        C494   1.415       .  A
C494        S498   1.802       .  S
C495        C500   1.410       .  A
C495        C504   1.403       .  A
S496        H512   1.405       .  S
S498        H509   1.407       .  S
C500        C501   1.403       .  A
C500        S505   1.808       .  S
C501        C502   1.407       .  A
C501        H506   1.083       .  S
C502        C503   1.415       .  A
C503        C504   1.402       .  A
C503        S507   1.802       .  S
C504        H508   1.084       .  S
S505        H510   1.407       .  S
S507        H511   1.407       .  S
C513        C514   1.403       .  A
C513        C518   1.402       .  A
C513        H523   1.084       .  S
C514        C519   1.494       .  S
C514        C515   1.412       .  A
C515        C516   1.406       .  A
C515        S520   1.804       .  S
C516        C517   1.412       .  A
C516        H521   1.083       .  S
C517        C518   1.421       .  A
C518        S522   1.802       .  S
C519        C524   1.413       .  A
C519        C528   1.402       .  A
S520        H536   1.406       .  S
S522        H533   1.408       .  S
C524        C525   1.410       .  A
C524        S529   1.807       .  S
C525        C526   1.409       .  A
C525        H530   1.082       .  S
C526        C527   1.420       .  A
C527        C528   1.402       .  A
C527        S531   1.804       .  S
C528        H532   1.084       .  S
S529        H534   1.407       .  S
S531        H535   1.408       .  S
C537        C538   1.403       .  A
C537        C542   1.408       .  A
C537        H547   1.082       .  S
C538        C543   1.494       .  S
C538        C539   1.414       .  A
C539        C540   1.403       .  A
C539        S544   1.804       .  S
C540        C541   1.408       .  A
C540        H545   1.083       .  S
C541        C542   1.421       .  A
C542        S546   1.809       .  S
C543        C548   1.413       .  A
C543        C552   1.402       .  A
S544        H560   1.406       .  S
S546        H557   1.407       .  S
C548        C549   1.412       .  A
C548        S553   1.805       .  S
C549        C550   1.408       .  A
C549        H554   1.083   1_545  S
C550        C551   1.416       .  A
C551        C552   1.399       .  A
C551        S555   1.799       .  S
C552        H556   1.084       .  S
S553        H558   1.407   1_545  S
S555        H559   1.406   1_545  S
C561        C562   1.400       .  A
C561        C566   1.390       .  A
C561        H571   1.084       .  S
C562        C567   1.482   1_556  S
C562        C563   1.418       .  A
C563        C564   1.402       .  A
C563        S568   1.804       .  S
C564        C565   1.401   1_565  A
C564        H569   1.084   1_565  S
C565        C566   1.413   1_545  A
C566        S570   1.804       .  S
C567        C572   1.414       .  A
C567        C576   1.398       .  A
S568        H584   1.406   1_556  S
S570        H581   1.405   1_565  S
C572        C573   1.404       .  A
C572        S577   1.807       .  S
C573        C574   1.403       .  A
C573        H578   1.083       .  S
C574        C575   1.420       .  A
C575        C576   1.392       .  A
C575        S579   1.808   1_565  S
C576        H580   1.084   1_565  S
S577        H582   1.407       .  S
S579        H583   1.400       .  S
C585        C586   1.402   1_545  A
C585        C590   1.397       .  A
C585        H595   1.084       .  S
C586        C591   1.475       .  S
C586        C587   1.413       .  A
C587        C588   1.396   1_565  A
C587        S592   1.806       .  S
C588        C589   1.401       .  A
C588        H593   1.084   1_545  S
C589        C590   1.412       .  A
C590        S594   1.805       .  S
C591        C596   1.411       .  A
C591        C600   1.398       .  A
S592        H608   1.406       .  S
S594        H605   1.407       .  S
C596        C597   1.403       .  A
C596        S601   1.807       .  S
C597        C598   1.404       .  A
C597        H602   1.083       .  S
C598        C599   1.416       .  A
C599        C600   1.392       .  A
C599        S603   1.806       .  S
C600        H604   1.084   1_565  S
S601        H606   1.407       .  S
S603        H607   1.408       .  S
C609        C610   1.402       .  A
C609        C614   1.400       .  A
C609        H619   1.084       .  S
C610        C615   1.489   1_655  S
C610        C611   1.415       .  A
C611        C612   1.402       .  A
C611        S616   1.804       .  S
C612        C613   1.405       .  A
C612        H617   1.084       .  S
C613        C614   1.418       .  A
C614        S618   1.800       .  S
C615        C620   1.411       .  A
C615        C624   1.400       .  A
S616        H632   1.406   1_655  S
S618        H629   1.408       .  S
C620        C621   1.405       .  A
C620        S625   1.807       .  S
C621        C622   1.410       .  A
C621        H626   1.082       .  S
C622        C623   1.423       .  A
C623        C624   1.400       .  A
C623        S627   1.802       .  S
C624        H628   1.084       .  S
S625        H630   1.407       .  S
S627        H631   1.409       .  S
C633        C634   1.404       .  A
C633        C638   1.394       .  A
C633        H643   1.084       .  S
C634        C639   1.486       .  S
C634        C635   1.417       .  A
C635        C636   1.402       .  A
C635        S640   1.805       .  S
C636        C637   1.403       .  A
C636        H641   1.084       .  S
C637        C638   1.409       .  A
C638        S642   1.799       .  S
C639        C644   1.415       .  A
C639        C648   1.399       .  A
S640        H656   1.405       .  S
S642        H653   1.404       .  S
C644        C645   1.408       .  A
C644        S649   1.806       .  S
C645        C646   1.405       .  A
C645        H650   1.082       .  S
C646        C647   1.415       .  A
C647        C648   1.393       .  A
C647        S651   1.809       .  S
C648        H652   1.083       .  S
S649        H654   1.407       .  S
S651        H655   1.407       .  S
C657        C658   1.400       .  A
C657        C662   1.398       .  A
C657        H667   1.084       .  S
C658        C663   1.474       .  S
C658        C659   1.414       .  A
C659        C660   1.398       .  A
C659        S664   1.807       .  S
C660        C661   1.403       .  A
C660        H665   1.084       .  S
C661        C662   1.415       .  A
C662        S666   1.805       .  S
C663        C668   1.404       .  A
C663        C672   1.400       .  A
S664        H680   1.402       .  S
S666        H677   1.407       .  S
C668        C669   1.398       .  A
C668        S673   1.807       .  S
C669        C670   1.410       .  A
C669        H674   1.082       .  S
C670        C671   1.420       .  A
C671        C672   1.399       .  A
C671        S675   1.803       .  S
C672        H676   1.084       .  S
S673        H678   1.407       .  S
S675        H679   1.408       .  S
C681        C682   1.402   1_554  A
C681        C686   1.402       .  A
C681        H691   1.083       .  S
C682        C687   1.476       .  S
C682        C683   1.413       .  A
C683        C684   1.395   1_556  A
C683        S688   1.805       .  S
C684        C685   1.403       .  A
C684        H689   1.084       .  S
C685        C686   1.415       .  A
C686        S690   1.809       .  S
C687        C692   1.411       .  A
C687        C696   1.399       .  A
S688        H704   1.406       .  S
S690        H701   1.407       .  S
C692        C693   1.403       .  A
C692        S697   1.807       .  S
C693        C694   1.405       .  A
C693        H698   1.083       .  S
C694        C695   1.415       .  A
C695        C696   1.394       .  A
C695        S699   1.805       .  S
C696        H700   1.084       .  S
S697        H702   1.407       .  S
S699        H703   1.407       .  S
C705        C706   1.401       .  A
C705        C710   1.400       .  A
C705        H715   1.084       .  S
C706        C711   1.481       .  S
C706        C707   1.413       .  A
C707        C708   1.400       .  A
C707        S712   1.805       .  S
C708        C709   1.404       .  A
C708        H713   1.084       .  S
C709        C710   1.416       .  A
C710        S714   1.805       .  S
C711        C716   1.407       .  A
C711        C720   1.400       .  A
S712        H728   1.405       .  S
S714        H725   1.407       .  S
C716        C717   1.401       .  A
C716        S721   1.808       .  S
C717        C718   1.410       .  A
C717        H722   1.082       .  S
C718        C719   1.423       .  A
C719        C720   1.403       .  A
C719        S723   1.802       .  S
C720        H724   1.084       .  S
S721        H726   1.407       .  S
S723        H727   1.405       .  S
C729        C730   1.403       .  A
C729        C734   1.401       .  A
C729        H739   1.084       .  S
C730        C735   1.484       .  S
C730        C731   1.410       .  A
C731        C732   1.402       .  A
C731        S736   1.804       .  S
C732        C733   1.410       .  A
C732        H737   1.083       .  S
C733        C734   1.418       .  A
C734        S738   1.802       .  S
C735        C740   1.409       .  A
C735        C744   1.401       .  A
S736        H752   1.405       .  S
S738        H749   1.407       .  S
C740        C741   1.405       .  A
C740        S745   1.805       .  S
C741        C742   1.406       .  A
C741        H746   1.083       .  S
C742        C743   1.416       .  A
C743        C744   1.400       .  A
C743        S747   1.801       .  S
C744        H748   1.084       .  S
S745        H750   1.407       .  S
S747        H751   1.406       .  S
