geometry optimzed in LAMMPS
_audit_creation_date              2020-12-01 
_audit_creation_method            'lammps2cif' 
_symmetry_space_group_name_H-M    'P1' 
_symmetry_Int_Tables_number       1 
_symmetry_cell_setting            triclinic 
loop_ 
_symmetry_equiv_pos_as_xyz 
  x,y,z 
_cell_length_a                    35.96600159 
_cell_length_b                    27.185613609232384 
_cell_length_c                    35.87617571044662 
_cell_angle_alpha                 90.22657132814 
_cell_angle_beta                  107.94932521437485 
_cell_angle_gamma                 89.91114733362936 
loop_ 
_atom_site_label 
_atom_site_type_symbol 
_atom_site_fract_x 
_atom_site_fract_y 
_atom_site_fract_z 
_atom_site_charge 
O1          O  0.26976570  0.88123870  0.08954394    -0.84100
O2          O  0.25651707  0.78905377  0.10880829    -0.81100
C3          C  0.25982658  0.74455297  0.11791133     0.99400
O4          O  0.29328607  0.72580251  0.13284310    -0.81200
O5          O  0.32909886  0.73616665  0.07378086    -0.83800
C6          C  0.34733576  0.75577321  0.05283413     1.03900
O7          O  0.36458436  0.79645699  0.06241849    -0.76600
O8          O  0.30419486  0.85979272  0.05118320    -0.76800
C9          C  0.27290755  0.87581795  0.05542195     1.03900
O10         O  0.32606683  0.89331945  0.16750227    -0.84100
O11         O  0.30965325  0.80007668  0.18818512    -0.81100
C12         C  0.34064995  0.77605113  0.20520465     0.99400
O13         O  0.36354982  0.76250590  0.18690413    -0.81200
O14         O  0.40086472  0.76353254  0.13164949    -0.83800
C15         C  0.42158215  0.80215785  0.13763482     1.03900
O16         O  0.40609919  0.84429938  0.13275752    -0.76600
O17         O  0.34750451  0.91519601  0.11912666    -0.76700
C18         C  0.34081319  0.92508958  0.15096930     1.03800
Cr19       Cr  0.29354796  0.83906125  0.13754958     1.93700
Cr20       Cr  0.34541628  0.75191495  0.13035219     1.93200
Cr21       Cr  0.35383399  0.85155989  0.09373765     1.39100
O22         O  0.33131993  0.81455104  0.12117108    -1.21800
O23         O  0.20041679  0.85841565  0.41820029    -0.84100
O24         O  0.20493001  0.76458575  0.39281292    -0.81100
C25         C  0.19692340  0.72234689  0.37845124     0.99400
O26         O  0.16174539  0.70908012  0.36460483    -0.81200
O27         O  0.12884610  0.72188820  0.42572560    -0.83800
C28         C  0.11360035  0.74314803  0.44876601     1.03900
O29         O  0.09937926  0.78603011  0.44161092    -0.76600
O30         O  0.16145023  0.84569457  0.45373731    -0.76800
C31         C  0.19433889  0.85763654  0.45125690     1.03900
O32         O  0.14704794  0.88101053  0.34101070    -0.84100
O33         O  0.15348945  0.78725896  0.31539266    -0.81100
C34         C  0.12087837  0.76762293  0.29688633     0.99400
O35         O  0.09605092  0.75690243  0.31391782    -0.81200
O36         O  0.05911815  0.75822024  0.37184156    -0.83800
C37         C  0.04098970  0.79865222  0.36912580     1.03900
O38         O  0.05922451  0.83863319  0.37158651    -0.76600
O39         O  0.12175728  0.90390692  0.38664162    -0.76700
C40         C  0.13243534  0.91368583  0.35698835     1.03800
Cr41       Cr  0.17310228  0.82132076  0.36799136     1.93700
Cr42       Cr  0.11303266  0.74148135  0.37007727     1.93200
Cr43       Cr  0.11206143  0.84081639  0.41074565     1.39100
O44         O  0.13262666  0.80173351  0.38255734    -1.21800
O45         O  0.39882639  0.62997493  0.45580291    -0.84100
O46         O  0.34330784  0.69936855  0.43975936    -0.81100
C47         C  0.36206091  0.73884946  0.45150799     0.99400
O48         O  0.38358128  0.75758634  0.43339359    -0.81200
O49         O  0.42650799  0.76680231  0.37913377    -0.83800
C50         C  0.45893897  0.74770680  0.39763647     1.03900
O51         O  0.45962840  0.70469348  0.40972804    -0.76600
O52         O  0.44351824  0.61371358  0.42737852    -0.76800
C53         C  0.43277034  0.61631751  0.45801571     1.03900
O54         O  0.36156421  0.57959243  0.38305027    -0.84100
O55         O  0.30588413  0.65568596  0.36540601    -0.81100
C56         C  0.29238381  0.69890266  0.36184409     0.99400
O57         O  0.31511523  0.73550866  0.37055840    -0.81200
O58         O  0.35912516  0.73064220  0.32157001    -0.83800
C59         C  0.38422086  0.71647389  0.30612980     1.03900
O60         O  0.41448689  0.69257772  0.32595073    -0.76600
O61         O  0.39638962  0.60004801  0.34495866    -0.76700
C62         C  0.37635889  0.56905649  0.35614529     1.03800
Cr63       Cr  0.35464388  0.64342958  0.40882937     1.93700
Cr64       Cr  0.37221999  0.74267135  0.37726000     1.93200
Cr65       Cr  0.42517351  0.65458659  0.37752264     1.39100
O66         O  0.38369499  0.67950194  0.38733167    -1.21800
O67         O  0.06237628  0.62432291  0.04300616    -0.84100
O68         O  0.11977847  0.69113846  0.05933449    -0.81100
C69         C  0.10220076  0.73178108  0.04926123     0.99400
O70         O  0.08287850  0.75160801  0.06939521    -0.81200
O71         O  0.04262967  0.76242981  0.12596593    -0.83800
C72         C  0.00915673  0.74670468  0.10699860     1.03900
O73         O  0.00599739  0.70465202  0.09219559    -0.76600
O74         O  0.01698638  0.61225730  0.07120556    -0.76800
C75         C  0.02776959  0.61361835  0.04063142     1.03900
O76         O  0.09974122  0.57249030  0.11535852    -0.84100
O77         O  0.15703876  0.64417224  0.13353711    -0.81100
C78         C  0.17262303  0.68593735  0.13605797     0.99400
O79         O  0.15139435  0.72404222  0.12924239    -0.81200
O80         O  0.10798888  0.71995870  0.18099843    -0.83800
C81         C  0.08148185  0.70786375  0.19544010     1.03900
O82         O  0.05042895  0.68632808  0.17466498    -0.76600
O83         O  0.06378902  0.59330259  0.15254195    -0.76700
C84         C  0.08507459  0.56279786  0.14238721     1.03800
Cr85       Cr  0.10755881  0.63543454  0.08997812     1.93700
Cr86       Cr  0.09504383  0.73464594  0.12531049     1.93200
Cr87       Cr  0.03771855  0.65065788  0.12207104     1.39100
O88         O  0.08033069  0.67274434  0.11292463    -1.21800
O89         O  0.31154494  0.12346875  0.04522999    -0.84100
O90         O  0.37111093  0.18961090  0.05468443    -0.81100
C91         C  0.35282850  0.22921513  0.04599374     0.99400
O92         O  0.33312178  0.24610804  0.06678459    -0.81200
O93         O  0.29746449  0.25292746  0.12634960    -0.83800
C94         C  0.26556534  0.22961117  0.11569351     1.03900
O95         O  0.26501672  0.18414030  0.10981561    -0.76600
O96         O  0.28315658  0.09579942  0.08701001    -0.76800
C97         C  0.28207495  0.10473750  0.05194107     1.03900
O98         O  0.36178450  0.06937063  0.10987246    -0.84100
O99         O  0.41707777  0.14581364  0.12301656    -0.81100
C100        C  0.42977912  0.18971009  0.12702633     0.99400
O101        O  0.40639111  0.22556317  0.12445741    -0.81200
O102        O  0.36944619  0.22558653  0.18129381    -0.83800
C103        C  0.34912117  0.20783491  0.20096870     1.03900
O104        O  0.32244132  0.17646430  0.18602755    -0.76600
O105        O  0.34463655  0.08583943  0.16202007    -0.76700
C106        C  0.35905426  0.05691150  0.14260435     1.03800
Cr107      Cr  0.36334622  0.13427392  0.08595896     1.93700
Cr108      Cr  0.35068917  0.23209830  0.12393944     1.93200
Cr109      Cr  0.30695758  0.13793708  0.13508758     1.39100
O110        O  0.34087368  0.16799119  0.11591513    -1.21800
O111        O  0.16863725  0.12404826  0.45785872    -0.84100
O112        O  0.10791034  0.18871232  0.44501463    -0.81100
C113        C  0.12913170  0.22562034  0.45593405     0.99400
O114        O  0.14956786  0.24116577  0.43543237    -0.81200
O115        O  0.18663304  0.24605585  0.37653187    -0.83800
C116        C  0.21782319  0.22123327  0.38434610     1.03900
O117        O  0.21756444  0.17563887  0.38895680    -0.76600
O118        O  0.19917467  0.09251226  0.41872774    -0.76800
C119        C  0.19877961  0.10449310  0.45314103     1.03900
O120        O  0.12135350  0.06433311  0.39703830    -0.84100
O121        O  0.06580708  0.14017710  0.37686467    -0.81100
C122        C  0.05307436  0.18391611  0.37208559     0.99400
O123        O  0.07637844  0.22013772  0.37542575    -0.81200
O124        O  0.11514284  0.22038870  0.32022064    -0.83800
C125        C  0.13339611  0.19900755  0.29989842     1.03900
O126        O  0.15782084  0.16469028  0.31446784    -0.76600
O127        O  0.13610993  0.07626651  0.34331811    -0.76700
C128        C  0.12240731  0.04927566  0.36439631     1.03800
Cr129      Cr  0.11801494  0.13144517  0.41627827     1.93700
Cr130      Cr  0.13273730  0.22666634  0.37779232     1.93200
Cr131      Cr  0.17450252  0.12961724  0.36740738     1.39100
O132        O  0.14147848  0.16258417  0.38611426    -1.21800
O133        O  0.44643261  0.39467900  0.41182591    -0.84100
O134        O  0.46633120  0.31125433  0.38248167    -0.81100
C135        C  0.46800862  0.26543348  0.37887906     0.99400
O136        O  0.43759487  0.23916170  0.37198520    -0.81200
O137        O  0.40213548  0.24112265  0.43215461    -0.83800
C138        C  0.38211957  0.25659726  0.45311475     1.03900
O139        O  0.36155759  0.29425542  0.44324281    -0.76600
O140        O  0.41968100  0.36225070  0.45361705    -0.75200
C141        C  0.44809553  0.38356468  0.44679031     1.03900
O142        O  0.38101174  0.40698574  0.33880082    -0.84100
O143        O  0.40461425  0.31975470  0.30995717    -0.81100
C144        C  0.38070829  0.28487703  0.29632068     0.99400
O145        O  0.36393624  0.26272131  0.31743343    -0.81200
O146        O  0.32734845  0.26063537  0.37439822    -0.83800
C147        C  0.30342610  0.29608940  0.37199305     1.03900
O148        O  0.31534548  0.34020396  0.37634280    -0.76600
O149        O  0.36835434  0.41872152  0.39370055    -0.76700
C150        C  0.36747847  0.43353947  0.36050581     1.03800
Cr151      Cr  0.42163508  0.35553929  0.36203304     1.93700
Cr152      Cr  0.38354295  0.25644853  0.37475688     1.93200
Cr153      Cr  0.36827210  0.35167868  0.41382175     1.39100
O154        O  0.39101462  0.32109289  0.38272394    -1.21800
O155        O  0.03354103  0.39190504  0.09210970    -0.84100
O156        O  0.01648688  0.30422445  0.11566802    -0.81100
C157        C  0.01683134  0.25831324  0.11812416     0.99400
O158        O  0.04846788  0.23439371  0.12623447    -0.81200
O159        O  0.08426037  0.24464252  0.06730203    -0.83800
C160        C  0.10396234  0.26227341  0.04691042     1.03900
O161        O  0.12237188  0.30152464  0.05677820    -0.76600
O162        O  0.06099871  0.36500954  0.04896434    -0.76800
C163        C  0.03194707  0.38363541  0.05665688     1.03900
O164        O  0.09716825  0.40203064  0.16625447    -0.84100
O165        O  0.07620620  0.31063865  0.19057648    -0.81100
C166        C  0.10176464  0.27734070  0.20402131     0.99400
O167        O  0.12056611  0.25893931  0.18295192    -0.81200
O168        O  0.15743331  0.26533863  0.12596393    -0.83800
C169        C  0.17997030  0.30224160  0.12903049     1.03900
O170        O  0.16659652  0.34573396  0.12566636    -0.76600
O171        O  0.11007721  0.42026786  0.11235234    -0.76700
C172        C  0.10912069  0.43205921  0.14581895     1.03800
Cr173      Cr  0.05896913  0.34992697  0.13995926     1.93700
Cr174      Cr  0.10179773  0.25628843  0.12500066     1.93200
Cr175      Cr  0.11306001  0.35558736  0.08877230     1.39100
O176        O  0.09171842  0.32051978  0.11886761    -1.21800
C177        C  0.48470729  0.39254486  0.47953885    -0.15200
C178        C  0.99463405  0.39273723  0.02458035    -0.30300
H179        H  0.51168665  0.39680209  0.47225412     0.13900
H180        H  0.96788624  0.39296512  0.03263608     0.14400
C181        C  0.12719559  0.21608032  0.25874243    -0.15200
C182        C  0.10852318  0.25896967  0.24483688    -0.30300
H183        H  0.13954937  0.19412926  0.24010879     0.13900
H184        H  0.09616229  0.28067609  0.26360710     0.14400
C185        C  0.12801106  0.25027367  0.49193284    -0.15200
C186        C  0.10796913  0.23678867  0.01258916    -0.30300
H187        H  0.14634028  0.28248368  0.50160403     0.13900
H188        H  0.09009819  0.20427820  0.00255386     0.14400
C189        C  0.25616890  0.24317732  0.38783480    -0.15200
C190        C  0.26256980  0.28415594  0.36972798    -0.30300
H191        H  0.28116383  0.22072958  0.40342757     0.13900
H192        H  0.23869458  0.30834075  0.35455782     0.14400
C193        C  0.50729298  0.24518604  0.38310220    -0.15200
C194        C  0.01211850  0.19515726  0.36931644    -0.30300
H195        H  0.53095416  0.27018458  0.39764433     0.13900
H196        H  0.98804445  0.17424807  0.35009234     0.14400
C197        C  0.35534701  0.22527366  0.24164409    -0.15200
C198        C  0.37369063  0.26818356  0.25529139    -0.30300
H199        H  0.34316137  0.20328540  0.26026622     0.13900
H200        H  0.38548794  0.29039358  0.23648381     0.14400
C201        C  0.37906166  0.23086399  0.48791624    -0.15200
C202        C  0.35727132  0.25605748  0.01263110    -0.30300
H203        H  0.39070156  0.19392181  0.49462826     0.13900
H204        H  0.33925459  0.28850619  0.00297042     0.14400
C205        C  0.47114307  0.20148546  0.13011682    -0.15200
C206        C  0.97860080  0.23481545  0.11136980    -0.30300
H207        H  0.49452437  0.17566974  0.14325324     0.13900
H208        H  0.95407678  0.25508787  0.09210207     0.14400
C209        C  0.22097874  0.29223429  0.13097370    -0.15200
C210        C  0.22755710  0.25315186  0.11063175    -0.30300
H211        H  0.24474985  0.31468334  0.14897192     0.13900
H212        H  0.20257097  0.23251118  0.09245338     0.14400
C213        C  0.24463352  0.09665645  0.01948693    -0.15200
C214        C  0.23450443  0.09813408  0.48812687    -0.30300
H215        H  0.21798125  0.09577986  0.02769475     0.13900
H216        H  0.26163169  0.08687048  0.48328151     0.14400
C217        C  0.08968219  0.51321733  0.15984703    -0.15200
C218        C  0.11837821  0.48340734  0.15719406    -0.30300
H219        H  0.06498699  0.49810679  0.16741716     0.13900
H220        H  0.14219165  0.49928604  0.14852898     0.14400
C221        C  0.37456084  0.51813605  0.34071128    -0.15200
C222        C  0.35272552  0.48388700  0.35065435    -0.30300
H223        H  0.39733683  0.50679868  0.32841241     0.13900
H224        H  0.33093359  0.49600433  0.36402698     0.14400
C225        C  0.45980947  0.60683651  0.49816583    -0.15200
C226        C  0.99988994  0.60615128  0.00047889    -0.30300
H227        H  0.44723889  0.60799153  0.52209802     0.13900
H228        H  0.01193130  0.60699209  0.97617620     0.14400
C229        C  0.13149467  0.96518939  0.34348444    -0.15200
C230        C  0.10929680  0.99841935  0.35430450    -0.30300
H231        H  0.15410700  0.97716159  0.33127591     0.13900
H232        H  0.08749103  0.98519760  0.36718472     0.14400
C233        C  0.08586654  0.72200183  0.23632383    -0.15200
C234        C  0.11358804  0.75443973  0.25547347    -0.30300
H235        H  0.06590380  0.70650367  0.25051613     0.13900
H236        H  0.13342885  0.76972315  0.24102487     0.14400
C237        C  0.11010004  0.71742223  0.48334378    -0.15200
C238        C  0.10573780  0.75690216  0.01450488    -0.30300
H239        H  0.11749171  0.67859178  0.48711668     0.13900
H240        H  0.08952399  0.79089172  0.00564420     0.14400
C241        C  0.22907518  0.69154256  0.37407178    -0.15200
C242        C  0.25034284  0.70898400  0.35203144    -0.30300
H243        H  0.23969367  0.66123777  0.39419302     0.13900
H244        H  0.23988815  0.74165780  0.33448231     0.14400
C245        C  0.00027452  0.79747843  0.37016845    -0.15200
C246        C  0.49713578  0.77157989  0.40328685    -0.30300
H247        H  0.97649974  0.80770288  0.34436280     0.13900
H248        H  0.52164888  0.75464936  0.42530460     0.14400
C249        C  0.34624489  0.97612257  0.16597675    -0.15200
C250        C  0.37021956  0.00608267  0.15461799    -0.30300
H251        H  0.32462991  0.99122475  0.17835706     0.13900
H252        H  0.39111217  0.98956829  0.14187665     0.14400
C253        C  0.37831265  0.73064738  0.26499786    -0.15200
C254        C  0.34896420  0.76170233  0.24645240    -0.30300
H255        H  0.39810752  0.71619324  0.25008459     0.13900
H256        H  0.32936211  0.77609019  0.26162961     0.14400
C257        C  0.35138414  0.73059043  0.01826602    -0.15200
C258        C  0.35672045  0.76402595  0.48546709    -0.30300
H259        H  0.34227838  0.69245843  0.01261345     0.13900
H260        H  0.36852862  0.80087437  0.49271704     0.14400
C261        C  0.46390078  0.79578656  0.14801544    -0.15200
C262        C  0.97265872  0.77337484  0.10421205    -0.30300
H263        H  0.47751960  0.77652026  0.17532334     0.13900
H264        H  0.94721908  0.76095267  0.08070532     0.14400
C265        C  0.22333996  0.71692742  0.11162434    -0.15200
C266        C  0.21447313  0.69153146  0.13989451    -0.30300
H267        H  0.19954229  0.72768058  0.08588112     0.13900
H268        H  0.23672783  0.68139302  0.16690238     0.14400
C269        C  0.23870357  0.88491233  0.02020276    -0.15200
C270        C  0.22639829  0.86927341  0.48786123    -0.30300
H271        H  0.21025587  0.88811323  0.02466311     0.13900
H272        H  0.25528064  0.87692986  0.48564409     0.14400
O273        O  0.24998248  0.84048173  0.58952347    -0.84100
O274        O  0.26874066  0.77102790  0.64868894    -0.81100
C275        C  0.26355779  0.73419759  0.62640178     0.99400
O276        O  0.28719571  0.72583806  0.60748506    -0.81200
O277        O  0.34628611  0.74055023  0.57471187    -0.83800
C278        C  0.33598878  0.76473628  0.54346119     1.03900
O279        O  0.32535217  0.80880609  0.54248384    -0.76600
O280        O  0.28674291  0.88390868  0.56279023    -0.76800
C281        C  0.25431876  0.86366691  0.56057204     1.03900
O282        O  0.30215738  0.90739135  0.64064388    -0.84100
O283        O  0.33020186  0.83008997  0.69418570    -0.81100
C284        C  0.34358120  0.78783533  0.70629337     0.99400
O285        O  0.34147168  0.75270499  0.68254704    -0.81200
O286        O  0.39670121  0.77413288  0.64743475    -0.83800
C287        C  0.41384265  0.79991109  0.62858112     1.03900
O288        O  0.39531803  0.82995677  0.60256964    -0.76600
O289        O  0.35732089  0.90738982  0.62739740    -0.76700
C290        C  0.33259572  0.92935918  0.63985286     1.03800
Cr291      Cr  0.29053902  0.83608049  0.64151722     1.93700
Cr292      Cr  0.34140967  0.75323862  0.62722253     1.93200
Cr293      Cr  0.34013154  0.85462387  0.58688643     1.39100
O294        O  0.32462011  0.81474168  0.61851415    -1.21800
O295        O  0.20974897  0.87329177  0.91429878    -0.84100
O296        O  0.21666602  0.77940110  0.89266253    -0.81100
C297        C  0.20963968  0.73484693  0.88458552     0.99400
O298        O  0.17498765  0.71935027  0.87368230    -0.81200
O299        O  0.14539825  0.73962629  0.93555364    -0.83800
C300        C  0.12948103  0.76178464  0.95758174     1.03900
O301        O  0.11286260  0.80284648  0.94775510    -0.76600
O302        O  0.17402189  0.86301664  0.95359875    -0.76800
C303        C  0.20620856  0.87334713  0.94849965     1.03900
O304        O  0.15197429  0.88959547  0.83776602    -0.84100
O305        O  0.15972620  0.79415412  0.81601197    -0.81100
C306        C  0.12785580  0.77081993  0.80109886     0.99400
O307        O  0.10627762  0.75874613  0.82140602    -0.81200
O308        O  0.07259934  0.76767182  0.88080905    -0.83800
C309        C  0.05293613  0.80717052  0.87529178     1.03900
O310        O  0.06962047  0.84792712  0.87532300    -0.76600
O311        O  0.13012027  0.91555525  0.88494479    -0.76700
C312        C  0.13808464  0.92323831  0.85351980     1.03800
Cr313      Cr  0.18125011  0.83262565  0.86657987     1.93700
Cr314      Cr  0.12625097  0.75149227  0.87851519     1.93200
Cr315      Cr  0.12324613  0.85442447  0.91275269     1.39100
O316        O  0.14339071  0.81330121  0.88532550    -1.21800
O317        O  0.42893274  0.61623492  0.94466628    -0.84100
O318        O  0.38490877  0.68882317  0.96132628    -0.81100
C319        C  0.37246869  0.73219822  0.95988572     0.99400
O320        O  0.36424372  0.75721931  0.92908068    -0.81200
O321        O  0.42871351  0.77919021  0.90620315    -0.83800
C322        C  0.45538456  0.77404687  0.89056206     1.03900
O323        O  0.45554987  0.73695776  0.86950420    -0.76600
O324        O  0.46965928  0.66256049  0.92520086    -0.76800
C325        C  0.46245291  0.63574276  0.95100036     1.03900
O326        O  0.36446429  0.59483455  0.87293723    -0.84100
O327        O  0.32053453  0.66837394  0.89499360    -0.81100
C328        C  0.30390536  0.69904252  0.86861897     0.99400
O329        O  0.32333843  0.72524077  0.85244353    -0.81200
O330        O  0.38419559  0.75394378  0.82727985    -0.83800
C331        C  0.38592612  0.72038895  0.80346615     1.03900
O332        O  0.39948502  0.67827796  0.81560808    -0.76600
O333        O  0.42279437  0.59827852  0.86670459    -0.76700
C334        C  0.39146921  0.57525039  0.86241107     1.03800
Cr335      Cr  0.37617505  0.64514346  0.91576370     1.93700
Cr336      Cr  0.37673242  0.74883815  0.87966552     1.93200
Cr337      Cr  0.43379000  0.67011765  0.87069529     1.39100
O338        O  0.39524818  0.68801277  0.88890756    -1.21800
O339        O  0.05060908  0.59500953  0.56605673    -0.84100
O340        O  0.08635971  0.67400773  0.54542830    -0.81100
C341        C  0.09524593  0.71881231  0.54558788     0.99400
O342        O  0.10228235  0.74491229  0.57608957    -0.81200
O343        O  0.03742084  0.76196175  0.59940925    -0.83800
C344        C  0.01019462  0.75383973  0.61372745     1.03900
O345        O  0.01064652  0.71543921  0.63335182    -0.76600
O346        O  0.00499481  0.63971403  0.57854959    -0.76800
C347        C  0.01631329  0.61229953  0.55538136     1.03900
O348        O  0.11490629  0.58676351  0.63785018    -0.84100
O349        O  0.15243463  0.66330059  0.61143427    -0.81100
C350        C  0.16684957  0.69460360  0.63796579     0.99400
O351        O  0.14556098  0.71771343  0.65408803    -0.81200
O352        O  0.08315985  0.73951698  0.67895018    -0.83800
C353        C  0.08141458  0.70577368  0.70255775     1.03900
O354        O  0.06862712  0.66335614  0.69017427    -0.76600
O355        O  0.05521002  0.58155478  0.64076060    -0.76700
C356        C  0.08895446  0.56358065  0.64758604     1.03800
Cr357      Cr  0.09933533  0.63281216  0.59267879     1.93700
Cr358      Cr  0.09084676  0.73593217  0.62632516     1.93200
Cr359      Cr  0.03771082  0.65141986  0.63426831     1.39100
O360        O  0.07625655  0.67360768  0.61777261    -1.21800
O361        O  0.30427779  0.10792903  0.55915951    -0.84100
O362        O  0.33913147  0.18857042  0.54119368    -0.81100
C363        C  0.35352300  0.23079887  0.54400874     0.99400
O364        O  0.36354119  0.25380826  0.57606191    -0.81200
O365        O  0.30021882  0.26726770  0.60480933    -0.83800
C366        C  0.27531908  0.25751193  0.62201111     1.03900
O367        O  0.27887137  0.21909336  0.64262452    -0.76600
O368        O  0.26573657  0.14452179  0.58792177    -0.76800
C369        C  0.27031931  0.12144475  0.55893368     1.03900
O370        O  0.37661568  0.09106375  0.62411012    -0.84100
O371        O  0.41032330  0.17186589  0.60164879    -0.81100
C372        C  0.42762343  0.19931232  0.63047658     0.99400
O373        O  0.40905456  0.22031186  0.65060504    -0.81200
O374        O  0.35045470  0.24421707  0.68140250    -0.83800
C375        C  0.35181101  0.21057643  0.70594152     1.03900
O376        O  0.34247638  0.16678847  0.69412573    -0.76600
O377        O  0.32360589  0.08480824  0.64120126    -0.76700
C378        C  0.35429074  0.06582532  0.63709468     1.03800
Cr379      Cr  0.35612963  0.14251936  0.58465453     1.93700
Cr380      Cr  0.35437290  0.24135053  0.62715780     1.93200
Cr381      Cr  0.30554615  0.15515788  0.63986605     1.39100
O382        O  0.33875395  0.17951247  0.61709870    -1.21800
O383        O  0.17470880  0.12169811  0.95640838    -0.84100
O384        O  0.11668033  0.18893514  0.94960757    -0.81100
C385        C  0.13640055  0.22728082  0.95942531     0.99400
O386        O  0.15580974  0.24412163  0.93840578    -0.81200
O387        O  0.18999506  0.25115449  0.87754720    -0.83800
C388        C  0.22117097  0.22630958  0.88548840     1.03900
O389        O  0.22060694  0.18063141  0.88963496    -0.76600
O390        O  0.20190491  0.09380775  0.91350938    -0.76800
C391        C  0.20383745  0.10308998  0.94885250     1.03900
O392        O  0.12227363  0.06895585  0.89240491    -0.84100
O393        O  0.06862272  0.14748214  0.88129232    -0.81100
C394        C  0.05681719  0.19182976  0.87812559     0.99400
O395        O  0.08098460  0.22693727  0.88122730    -0.81200
O396        O  0.11647259  0.22747984  0.82295081    -0.83800
C397        C  0.13455313  0.20778657  0.80169925     1.03900
O398        O  0.16019324  0.17470996  0.81521578    -0.76600
O399        O  0.13795564  0.08471039  0.83950772    -0.76700
C400        C  0.12367880  0.05632016  0.85920871     1.03800
Cr401      Cr  0.12259873  0.13393858  0.91704391     1.93700
Cr402      Cr  0.13662861  0.23185210  0.88069177     1.93200
Cr403      Cr  0.17706324  0.13596356  0.86579087     1.39100
O404        O  0.14489265  0.16719869  0.88685807    -1.21800
O405        O  0.45325833  0.39940430  0.91528282    -0.84100
O406        O  0.47074454  0.31402147  0.88676467    -0.81100
C407        C  0.47156879  0.26796844  0.88473277     0.99400
O408        O  0.44094579  0.24277994  0.87953099    -0.81200
O409        O  0.40687260  0.25113859  0.93991991    -0.83800
C410        C  0.38689958  0.26732432  0.96063237     1.03900
O411        O  0.36701104  0.30544288  0.95088983    -0.76600
O412        O  0.42615750  0.37167426  0.95842710    -0.75200
C413        C  0.45504160  0.39050447  0.95065719     1.03900
O414        O  0.38736926  0.41201795  0.84293248    -0.84100
O415        O  0.40744361  0.32238319  0.81482896    -0.81100
C416        C  0.38370578  0.28690292  0.80235680     0.99400
O417        O  0.36805289  0.26498857  0.82456899    -0.81200
O418        O  0.33204834  0.26883394  0.88217833    -0.83800
C419        C  0.30823979  0.30441890  0.87935957     1.03900
O420        O  0.32029612  0.34859162  0.88318924    -0.76600
O421        O  0.37434215  0.42673835  0.89730514    -0.76700
C422        C  0.37466132  0.44035956  0.86415777     1.03800
Cr423      Cr  0.42668760  0.35943705  0.86638269     1.93700
Cr424      Cr  0.38775950  0.26269912  0.88225697     1.93200
Cr425      Cr  0.37400695  0.36066879  0.91938334     1.39100
O426        O  0.39580364  0.32754677  0.88833629    -1.21800
O427        O  0.03556896  0.39255254  0.58972666    -0.84100
O428        O  0.01578625  0.30753398  0.61598442    -0.81100
C429        C  0.01507612  0.26179907  0.61993082     0.99400
O430        O  0.04610708  0.23662424  0.62781646    -0.81200
O431        O  0.08333785  0.24190534  0.56907240    -0.83800
C432        C  0.10328089  0.25812633  0.54832871     1.03900
O433        O  0.12383080  0.29568365  0.55881614    -0.76600
O434        O  0.06339953  0.36184301  0.54808208    -0.76800
C435        C  0.03429102  0.38183096  0.55474315     1.03900
O436        O  0.09880014  0.40365987  0.66428367    -0.84100
O437        O  0.07519754  0.31593230  0.69066132    -0.81100
C438        C  0.10007133  0.28229813  0.70495489     0.99400
O439        O  0.11814426  0.26123140  0.68435837    -0.81200
O440        O  0.15665095  0.26173997  0.62959723    -0.83800
C441        C  0.17987236  0.29801457  0.63387778     1.03900
O442        O  0.16742727  0.34170578  0.62663353    -0.76600
O443        O  0.11303155  0.41868912  0.61059981    -0.76700
C444        C  0.11191535  0.43213481  0.64370711     1.03800
Cr445      Cr  0.05940514  0.35244785  0.63893770     1.93700
Cr446      Cr  0.10022025  0.25572660  0.62673116     1.93200
Cr447      Cr  0.11480216  0.35221148  0.58880978     1.39100
O448        O  0.09183882  0.32004160  0.61909350    -1.21800
C449        C  0.49251324  0.39879774  0.98269542    -0.15200
C450        C  0.99720722  0.38957506  0.52211096    -0.30300
H451        H  0.51917412  0.39979673  0.97450814     0.13900
H452        H  0.97036394  0.39189877  0.52990700     0.14400
C453        C  0.12694672  0.22447859  0.76057198    -0.15200
C454        C  0.10706481  0.26618655  0.74619790    -0.30300
H455        H  0.13952178  0.20270248  0.74200718     0.13900
H456        H  0.09448901  0.28811330  0.76467356     0.14400
C457        C  0.13354142  0.25277931  0.99429430    -0.15200
C458        C  0.10456048  0.23343043  0.51240031    -0.30300
H459        H  0.15146194  0.28524421  0.00434463     0.13900
H460        H  0.08631372  0.20113996  0.50277429     0.14400
C461        C  0.25973932  0.24813892  0.88956585    -0.15200
C462        C  0.26706209  0.29223138  0.87613291    -0.30300
H463        H  0.28420672  0.22360354  0.90251645     0.13900
H464        H  0.24372997  0.31847606  0.86395457     0.14400
C465        C  0.51001829  0.24574416  0.88865904    -0.15200
C466        C  0.01544593  0.20472433  0.87473894    -0.30300
H467        H  0.53456818  0.26943088  0.90331250     0.13900
H468        H  0.99222597  0.17793009  0.86394941     0.14400
C469        C  0.36211444  0.22451052  0.74817260    -0.15200
C470        C  0.37447253  0.27067370  0.76085873    -0.30300
H471        H  0.35892021  0.19708654  0.76890774     0.13900
H472        H  0.37945467  0.29719129  0.74032940     0.14400
C473        C  0.38356086  0.24113435  0.99477928    -0.15200
C474        C  0.36004800  0.25365834  0.51023081    -0.30300
H475        H  0.40169425  0.20880453  0.00453814     0.13900
H476        H  0.35104315  0.29187788  0.50523551     0.14400
C477        C  0.46900105  0.21233083  0.63834163    -0.15200
C478        C  0.97632075  0.24010414  0.61497261    -0.30300
H479        H  0.48489360  0.22595570  0.66743419     0.13900
H480        H  0.95208991  0.26141295  0.59633102     0.14400
C481        C  0.22160796  0.28643751  0.64481876    -0.15200
C482        C  0.24152775  0.29016636  0.61870500    -0.30300
H483        H  0.23267707  0.26250968  0.67002357     0.13900
H484        H  0.23026561  0.31253196  0.59260381     0.14400
C485        C  0.23475217  0.11259242  0.52449832    -0.15200
C486        C  0.24168878  0.09576651  0.98092831    -0.30300
H487        H  0.20731594  0.12436982  0.52844391     0.13900
H488        H  0.26824778  0.09443972  0.97257364     0.14400
C489        C  0.09512476  0.51269679  0.66238044    -0.15200
C490        C  0.12189947  0.48367789  0.65463744    -0.30300
H491        H  0.07122203  0.49576721  0.67027699     0.13900
H492        H  0.14385250  0.50025864  0.64353127     0.14400
C493        C  0.38957457  0.52348722  0.84884101    -0.15200
C494        C  0.36306217  0.49171598  0.85367086    -0.30300
H495        H  0.41533500  0.50903309  0.84276062     0.13900
H496        H  0.33895672  0.50589319  0.86281935     0.14400
C497        C  0.49359650  0.62803722  0.98912404    -0.15200
C498        C  0.99144245  0.60276616  0.51446602    -0.30300
H499        H  0.52364985  0.63482767  0.99008957     0.13900
H500        H  0.00601620  0.59315615  0.49303292     0.14400
C501        C  0.13489530  0.97376441  0.83771312    -0.15200
C502        C  0.11081720  0.00597945  0.84682151    -0.30300
H503        H  0.15809326  0.98676033  0.82672999     0.13900
H504        H  0.08840908  0.99155405  0.85838597     0.14400
C505        C  0.09338923  0.71758794  0.74483875    -0.15200
C506        C  0.11624229  0.75696070  0.75932666    -0.30300
H507        H  0.08388303  0.69362074  0.76430170     0.13900
H508        H  0.12797037  0.77873754  0.74020855     0.14400
C509        C  0.12784144  0.73829756  0.99365778    -0.15200
C510        C  0.09834073  0.74202437  0.51016339    -0.30300
H511        H  0.14377980  0.70408012  0.00231184     0.13900
H512        H  0.09337516  0.78149778  0.50752192     0.14400
C513        C  0.24254145  0.70221413  0.88562081    -0.15200
C514        C  0.26187048  0.70963017  0.85945448    -0.30300
H515        H  0.25538698  0.68049948  0.91178752     0.13900
H516        H  0.24893354  0.73375953  0.83470430     0.14400
C517        C  0.01166013  0.80434834  0.87438960    -0.15200
C518        C  0.48719628  0.80998788  0.89592725    -0.30300
H519        H  0.98889925  0.82218259  0.85121708     0.13900
H520        H  0.50227342  0.82293379  0.92540689     0.14400
C521        C  0.33562089  0.98224335  0.64991903    -0.15200
C522        C  0.36188736  0.01236783  0.64242913    -0.30300
H523        H  0.31145388  0.99804790  0.65811712     0.13900
H524        H  0.38584926  0.99698299  0.63367206     0.14400
C525        C  0.37261521  0.73190011  0.76144629    -0.15200
C526        C  0.35976342  0.77745809  0.74837865    -0.30300
H527        H  0.37253122  0.70230613  0.74098507     0.13900
H528        H  0.36004691  0.80712091  0.76884178     0.14400
C529        C  0.33860165  0.74129647  0.50804485    -0.15200
C530        C  0.36689934  0.75498101  0.99426842    -0.30300
H531        H  0.32952618  0.70310148  0.50286502     0.13900
H532        H  0.37335284  0.79405536  0.99836350     0.14400
C533        C  0.45564385  0.79086432  0.63476672    -0.15200
C534        C  0.97738004  0.78853886  0.60867822    -0.30300
H535        H  0.47333805  0.77801614  0.66342710     0.13900
H536        H  0.96541693  0.80735679  0.58087960     0.14400
C537        C  0.22912276  0.70274589  0.62266563    -0.15200
C538        C  0.20815790  0.70882560  0.64778399    -0.30300
H539        H  0.21842720  0.67938669  0.59694821     0.13900
H540        H  0.21924955  0.73267062  0.67318684     0.14400
C541        C  0.22134974  0.86498633  0.52360449    -0.15200
C542        C  0.24102309  0.88203835  0.98326110    -0.30300
H543        H  0.19275518  0.85512347  0.52558972     0.13900
H544        H  0.26952580  0.88002303  0.97879419     0.14400
O545        O  0.77034178  0.87790179  0.09312714    -0.84100
O546        O  0.76043165  0.78509669  0.11538514    -0.81100
C547        C  0.76642633  0.74015732  0.12256551     0.99400
O548        O  0.80065908  0.72302996  0.13202563    -0.81200
O549        O  0.83316434  0.74134100  0.07154837    -0.83800
C550        C  0.84967767  0.76365435  0.05014708     1.03900
O551        O  0.86724613  0.80359891  0.06120091    -0.76600
O552        O  0.80500658  0.86299243  0.05347509    -0.76800
C553        C  0.77303346  0.87461813  0.05872562     1.03900
O554        O  0.82836349  0.89365953  0.16956185    -0.84100
O555        O  0.81724099  0.79939686  0.19088878    -0.81100
C556        C  0.84790845  0.77434989  0.20641345     0.99400
O557        O  0.86966284  0.75990669  0.18681504    -0.81200
O558        O  0.90533168  0.76775415  0.12856169    -0.83800
C559        C  0.92566402  0.80668350  0.13326571     1.03900
O560        O  0.90968736  0.84833341  0.13255169    -0.76600
O561        O  0.84899547  0.91748399  0.12130089    -0.76700
C562        C  0.84197040  0.92648472  0.15299167     1.03800
Cr563      Cr  0.79748419  0.83733019  0.14081448     1.93700
Cr564      Cr  0.85087533  0.75316497  0.12910767     1.93200
Cr565      Cr  0.85597642  0.85536705  0.09485252     1.39100
O566        O  0.83504908  0.81555548  0.12231533    -1.21800
O567        O  0.69603960  0.89843893  0.41689496    -0.84100
O568        O  0.71021894  0.80713929  0.39516633    -0.81100
C569        C  0.70746659  0.76223281  0.38676190     0.99400
O570        O  0.67446267  0.74149686  0.37610954    -0.81200
O571        O  0.64394403  0.75222533  0.43949356    -0.83800
C572        C  0.62662052  0.77097092  0.46179622     1.03900
O573        O  0.60789880  0.81055200  0.45277141    -0.76600
O574        O  0.66647278  0.87592553  0.45922549    -0.76800
C575        C  0.69628799  0.89247811  0.45204697     1.03900
O576        O  0.63437418  0.90936471  0.34243362    -0.84100
O577        O  0.65168411  0.81682205  0.31954976    -0.81100
C578        C  0.62261134  0.78863758  0.30504878     0.99400
O579        O  0.60207686  0.77302690  0.32533746    -0.81200
O580        O  0.56860942  0.77492908  0.38538176    -0.83800
C581        C  0.54656352  0.81243281  0.38136795     1.03900
O582        O  0.56076087  0.85521737  0.38338503    -0.76600
O583        O  0.61665876  0.92876648  0.39379944    -0.76700
C584        C  0.61974984  0.93940926  0.36080879     1.03800
Cr585      Cr  0.67011487  0.85587385  0.36980757     1.93700
Cr586      Cr  0.62332106  0.76563519  0.38238114     1.93200
Cr587      Cr  0.61467430  0.86519279  0.41963333     1.39100
O588        O  0.63559662  0.82919769  0.38981278    -1.21800
O589        O  0.89343011  0.62507025  0.45439404    -0.84100
O590        O  0.84006519  0.69513240  0.43860338    -0.81100
C591        C  0.85968141  0.73373353  0.45152281     0.99400
O592        O  0.88054595  0.75419044  0.43321159    -0.81200
O593        O  0.92347780  0.76743740  0.37835564    -0.83800
C594        C  0.95608171  0.75116489  0.39871290     1.03900
O595        O  0.95722743  0.71022444  0.41440963    -0.76600
O596        O  0.94440882  0.61869676  0.43320275    -0.76800
C597        C  0.92917019  0.61718057  0.46077007     1.03900
O598        O  0.86010978  0.57887347  0.37891777    -0.84100
O599        O  0.80425158  0.65504546  0.36116183    -0.81100
C600        C  0.79052518  0.69756074  0.36205427     0.99400
O601        O  0.81352141  0.73378393  0.37074255    -0.81200
O602        O  0.85955925  0.72800679  0.32122974    -0.83800
C603        C  0.88659646  0.71436298  0.30783232     1.03900
O604        O  0.91692807  0.69201849  0.32952672    -0.76600
O605        O  0.90412087  0.59873741  0.35049864    -0.76700
C606        C  0.88071138  0.56829364  0.35693746     1.03800
Cr607      Cr  0.85181332  0.64082582  0.40604591     1.93700
Cr608      Cr  0.87026953  0.74098356  0.37689198     1.93200
Cr609      Cr  0.92711495  0.65650306  0.38214148     1.39100
O610        O  0.88269799  0.67825601  0.38761812    -1.21800
O611        O  0.54989625  0.60958220  0.06826860    -0.84100
O612        O  0.58922351  0.68465720  0.04932834    -0.81100
C613        C  0.59792000  0.72935177  0.04961776     0.99400
O614        O  0.60381575  0.75568929  0.07983853    -0.81200
O615        O  0.54073263  0.77105978  0.10710672    -0.83800
C616        C  0.51547653  0.76308435  0.12409396     1.03900
O617        O  0.51836741  0.72558970  0.14513389    -0.76600
O618        O  0.50767272  0.65255664  0.08837064    -0.76800
C619        C  0.51590615  0.62781752  0.06196281     1.03900
O620        O  0.61704154  0.59439594  0.13938741    -0.84100
O621        O  0.65572186  0.67088322  0.11446906    -0.81100
C622        C  0.67095901  0.70414154  0.13925079     0.99400
O623        O  0.65067613  0.72852860  0.15583877    -0.81200
O624        O  0.59050372  0.74830446  0.18519849    -0.83800
C625        C  0.58912378  0.71486923  0.20925935     1.03900
O626        O  0.57787752  0.67170821  0.19745280    -0.76600
O627        O  0.55883828  0.59095819  0.14586265    -0.76700
C628        C  0.59161764  0.57163422  0.15010314     1.03800
Cr629      Cr  0.60136287  0.64270098  0.09577107     1.93700
Cr630      Cr  0.59512565  0.74578173  0.13121385     1.93200
Cr631      Cr  0.54376924  0.66149407  0.14252155     1.39100
O632        O  0.58058555  0.68343256  0.12314053    -1.21800
O633        O  0.81183918  0.12601988  0.04655739    -0.84100
O634        O  0.87244162  0.19002879  0.05587984    -0.81100
C635        C  0.85304934  0.22875658  0.04601716     0.99400
O636        O  0.83376051  0.24621370  0.06704257    -0.81200
O637        O  0.79813172  0.25573767  0.12647775    -0.83800
C638        C  0.76610217  0.23260119  0.11629451     1.03900
O639        O  0.76532842  0.18703023  0.11113823    -0.76600
O640        O  0.78238356  0.09903966  0.08775176    -0.76800
C641        C  0.78187248  0.10833725  0.05282196     1.03900
O642        O  0.85992987  0.07023302  0.11091857    -0.84100
O643        O  0.91611757  0.14460413  0.12540924    -0.81100
C644        C  0.92967519  0.18789868  0.12904977     0.99400
O645        O  0.90711770  0.22493379  0.12536937    -0.81200
O646        O  0.86988004  0.22832625  0.18233539    -0.83800
C647        C  0.84984464  0.21047119  0.20235588     1.03900
O648        O  0.82298820  0.17919157  0.18744164    -0.76600
O649        O  0.84403779  0.08809272  0.16346171    -0.76700
C650        C  0.85797630  0.05858029  0.14410530     1.03800
Cr651      Cr  0.86314715  0.13504567  0.08741310     1.93700
Cr652      Cr  0.85134764  0.23357302  0.12456814     1.93200
Cr653      Cr  0.80679661  0.14052457  0.13635581     1.39100
O654        O  0.84091223  0.16965639  0.11708520    -1.21800
O655        O  0.67601133  0.13063388  0.45395807    -0.84100
O656        O  0.61562196  0.19410143  0.44498875    -0.81100
C657        C  0.63292668  0.23449347  0.45511806     0.99400
O658        O  0.65145083  0.25454978  0.43449302    -0.81200
O659        O  0.68859940  0.26738428  0.37663861    -0.83800
C660        C  0.72161380  0.24774863  0.39168690     1.03900
O661        O  0.72425794  0.20286247  0.39932597    -0.76600
O662        O  0.70974603  0.11010759  0.41491618    -0.76800
C663        C  0.70743746  0.11547565  0.44929110     1.03900
O664        O  0.63109460  0.07885421  0.38379678    -0.84100
O665        O  0.57248978  0.15118568  0.37320054    -0.81100
C666        C  0.55822235  0.19414743  0.37096517     0.99400
O667        O  0.58040064  0.23138437  0.37536249    -0.81200
O668        O  0.61933178  0.23485648  0.31963759    -0.83800
C669        C  0.64292428  0.22189884  0.30167300     1.03900
O670        O  0.67279012  0.19588814  0.31870285    -0.76600
O671        O  0.65416650  0.10186109  0.33666821    -0.76700
C672        C  0.63858646  0.06981833  0.35219490     1.03800
Cr673      Cr  0.62572833  0.14101294  0.41146390     1.93700
Cr674      Cr  0.63596300  0.24191356  0.37717718     1.93200
Cr675      Cr  0.68696765  0.15464190  0.36836784     1.39100
O676        O  0.64882988  0.17876355  0.38471768    -1.21800
O677        O  0.95545764  0.39170570  0.41636086    -0.84100
O678        O  0.97050480  0.30459887  0.38892338    -0.81100
C679        C  0.96873245  0.25869970  0.38498651     0.99400
O680        O  0.93647297  0.23602066  0.37637112    -0.81200
O681        O  0.90042166  0.24329029  0.43542629    -0.83800
C682        C  0.88193223  0.26134120  0.45696214     1.03900
O683        O  0.86450642  0.30148043  0.44811318    -0.76600
O684        O  0.92848765  0.36183984  0.45879580    -0.75200
C685        C  0.95750805  0.38103714  0.45154973     1.03900
O686        O  0.89026271  0.40531229  0.34231030    -0.84100
O687        O  0.91145522  0.31603934  0.31493756    -0.81100
C688        C  0.88490303  0.28448873  0.30017509     0.99400
O689        O  0.86538760  0.26600855  0.32042004    -0.81200
O690        O  0.82809661  0.27110567  0.37714905    -0.83800
C691        C  0.80749701  0.30981228  0.37493761     1.03900
O692        O  0.82300636  0.35199149  0.38105730    -0.76600
O693        O  0.88177681  0.42251910  0.39838051    -0.76700
C694        C  0.87779942  0.43383727  0.36359352     1.03800
Cr695      Cr  0.92898814  0.35244698  0.36682597     1.93700
Cr696      Cr  0.88366328  0.25928179  0.37817002     1.93200
Cr697      Cr  0.87625870  0.35689325  0.41885826     1.39100
O698        O  0.89617048  0.32252157  0.38725217    -1.21800
O699        O  0.53420667  0.39995972  0.08851899    -0.84100
O700        O  0.51663714  0.31329286  0.11463219    -0.81100
C701        C  0.51684212  0.26757108  0.11929853     0.99400
O702        O  0.54846754  0.24347573  0.12724068    -0.81200
O703        O  0.58334776  0.24951243  0.06645224    -0.83800
C704        C  0.60239986  0.26644029  0.04506229     1.03900
O705        O  0.62122821  0.30561966  0.05423163    -0.76600
O706        O  0.56134585  0.37111916  0.04574077    -0.76800
C707        C  0.53245737  0.39047278  0.05322902     1.03900
O708        O  0.59870753  0.41112755  0.16206961    -0.84100
O709        O  0.57709862  0.32250896  0.18843882    -0.81100
C710        C  0.60360681  0.29076864  0.20266636     0.99400
O711        O  0.62182296  0.27085794  0.18166324    -0.81200
O712        O  0.65714244  0.27162811  0.12366639    -0.83800
C713        C  0.68005027  0.30801678  0.12616684     1.03900
O714        O  0.66701561  0.35162769  0.12207741    -0.76600
O715        O  0.61180970  0.42742010  0.10798115    -0.76700
C716        C  0.61156185  0.43998782  0.14154189     1.03800
Cr717      Cr  0.55965093  0.35937457  0.13706591     1.93700
Cr718      Cr  0.60171308  0.26421508  0.12398279     1.93200
Cr719      Cr  0.61338723  0.36155249  0.08536113     1.39100
O720        O  0.59182198  0.32827279  0.11618044    -1.21800
C721        C  0.99501052  0.38831483  0.48378172    -0.15200
C722        C  0.49509083  0.39880560  0.02112666    -0.30300
H723        H  0.02181854  0.38841719  0.47584369     0.13900
H724        H  0.46842043  0.40003437  0.02929622     0.14400
C725        C  0.63657563  0.23842820  0.26067097    -0.15200
C726        C  0.61182934  0.27547618  0.24422489    -0.30300
H727        H  0.65327092  0.22037460  0.24395086     0.13900
H728        H  0.59574010  0.29399540  0.26133084     0.14400
C729        C  0.62928559  0.25911383  0.49015962    -0.15200
C730        C  0.60548632  0.24052043  0.01022461    -0.30300
H731        H  0.64520227  0.29329874  0.49912407     0.13900
H732        H  0.58882606  0.20691594  0.00104580     0.14400
C733        C  0.75826411  0.27477259  0.39888068    -0.15200
C734        C  0.76612900  0.30345768  0.37188253    -0.30300
H735        H  0.78250532  0.26173434  0.42334781     0.13900
H736        H  0.74332359  0.31593325  0.34606218     0.14400
C737        C  0.00610341  0.23353545  0.39057988    -0.15200
C738        C  0.51637453  0.20297514  0.36774867    -0.30300
H739        H  0.03138535  0.25277886  0.40971665     0.13900
H740        H  0.49401852  0.17622614  0.35370357     0.14400
C741        C  0.85663038  0.22736140  0.24355889    -0.15200
C742        C  0.87786097  0.26793534  0.25884045    -0.30300
H743        H  0.84253495  0.20680517  0.26135215     0.13900
H744        H  0.89193724  0.28851669  0.24104097     0.14400
C745        C  0.87858204  0.23615199  0.49193779    -0.15200
C746        C  0.85528500  0.25431151  0.01099866    -0.30300
H747        H  0.89488746  0.20236806  0.50130749     0.13900
H748        H  0.83737927  0.28700415  0.00207600     0.14400
C749        C  0.97104750  0.19716980  0.13219421    -0.15200
C750        C  0.47843655  0.24494083  0.11548902    -0.30300
H751        H  0.99435624  0.17546635  0.15163441     0.13900
H752        H  0.45375856  0.26878710  0.10164212     0.14400
C753        C  0.72117846  0.29723643  0.12881204    -0.15200
C754        C  0.72801720  0.25621362  0.11078351    -0.30300
H755        H  0.74481152  0.32103986  0.14524853     0.13900
H756        H  0.70311889  0.23437200  0.09391778     0.14400
C757        C  0.74494287  0.10193572  0.01955516    -0.15200
C758        C  0.74294404  0.10767203  0.48392382    -0.30300
H759        H  0.71765523  0.10061056  0.02656284     0.13900
H760        H  0.77100620  0.10669990  0.47843973     0.14400
C761        C  0.59717070  0.52007104  0.16324579    -0.15200
C762        C  0.62260293  0.49098459  0.15332197    -0.30300
H763        H  0.57369042  0.50329358  0.17194458     0.13900
H764        H  0.64406261  0.50761827  0.14155111     0.14400
C765        C  0.88152429  0.51766442  0.34193573    -0.15200
C766        C  0.86022588  0.48205283  0.35082746    -0.30300
H767        H  0.90628810  0.50768377  0.33211621     0.13900
H768        H  0.83663545  0.49253664  0.36225762     0.14400
C769        C  0.95284552  0.61081738  0.50245004    -0.15200
C770        C  0.48548763  0.62159844  0.02321126    -0.30300
H771        H  0.93846285  0.61891698  0.52435552     0.13900
H772        H  0.45514664  0.62024290  0.02271449     0.14400
C773        C  0.60828651  0.98944344  0.34680285    -0.15200
C774        C  0.63314164  0.01914159  0.33652858    -0.30300
H775        H  0.58638781  0.00629198  0.35800399     0.13900
H776        H  0.65576073  0.00376123  0.32568294     0.14400
C777        C  0.59846585  0.72842091  0.25105736    -0.15200
C778        C  0.61365419  0.77301548  0.26396706    -0.30300
H779        H  0.59247752  0.70217726  0.27124432     0.13900
H780        H  0.62183300  0.79799904  0.24425289     0.14400
C781        C  0.62517488  0.74587994  0.49728580    -0.15200
C782        C  0.60193767  0.75223474  0.01456245    -0.30300
H783        H  0.64271562  0.71301462  0.50675288     0.13900
H784        H  0.59601583  0.79149486  0.01171416     0.14400
C785        C  0.74400839  0.73616344  0.38924377    -0.15200
C786        C  0.74959276  0.70589720  0.36144074    -0.30300
H787        H  0.76955616  0.75013555  0.41180353     0.13900
H788        H  0.72526177  0.69106712  0.33804400     0.14400
C789        C  0.50507330  0.80475048  0.37898768    -0.15200
C790        C  0.99348222  0.77481908  0.40080680    -0.30300
H791        H  0.48187735  0.82320961  0.35668462     0.13900
H792        H  0.01847589  0.76358810  0.42522465     0.14400
C793        C  0.84603672  0.97759034  0.16788056    -0.15200
C794        C  0.86992887  0.00825561  0.15702592    -0.30300
H795        H  0.82354130  0.99202013  0.17934455     0.13900
H796        H  0.89164826  0.99230286  0.14511480     0.14400
C797        C  0.88321600  0.72753805  0.26689933    -0.15200
C798        C  0.85639813  0.76104611  0.24791798    -0.30300
H799        H  0.90247057  0.71031903  0.25257040     0.13900
H800        H  0.83781033  0.77830042  0.26303727     0.14400
C801        C  0.85013614  0.74322964  0.01256826    -0.15200
C802        C  0.85713550  0.75629246  0.48752018    -0.30300
H803        H  0.83316799  0.71020778  0.00185934     0.13900
H804        H  0.87502310  0.78888597  0.49717861     0.14400
C805        C  0.96656912  0.80154356  0.13288876    -0.15200
C806        C  0.48179193  0.79600250  0.12003495    -0.30300
H807        H  0.99062049  0.81447795  0.15748261     0.13900
H808        H  0.46824192  0.81381425  0.09206824     0.14400
C809        C  0.73286162  0.70864968  0.12202038    -0.15200
C810        C  0.71200520  0.71944852  0.14641141    -0.30300
H811        H  0.72276460  0.68125128  0.09901844     0.13900
H812        H  0.72313112  0.74757492  0.16872021     0.14400
C813        C  0.73734788  0.88104616  0.02450196    -0.15200
C814        C  0.73312538  0.90103200  0.48454967    -0.30300
H815        H  0.70950193  0.88201774  0.03045364     0.13900
H816        H  0.76013810  0.90107269  0.47697059     0.14400
O817        O  0.77411019  0.90115937  0.59014113    -0.84100
O818        O  0.75597941  0.81558741  0.61733087    -0.81100
C819        C  0.75565015  0.77020105  0.62328642     0.99400
O820        O  0.78678446  0.74530759  0.63134909    -0.81200
O821        O  0.81745498  0.74801501  0.56769945    -0.83800
C822        C  0.83539077  0.76382904  0.54496930     1.03900
O823        O  0.85658000  0.80125613  0.55411459    -0.76600
O824        O  0.79982684  0.87051030  0.54682771    -0.76800
C825        C  0.77184163  0.89151685  0.55475756     1.03900
O826        O  0.84008969  0.91167582  0.66262150    -0.84100
O827        O  0.81860503  0.82438943  0.69001757    -0.81100
C828        C  0.84546241  0.79292627  0.70381321     0.99400
O829        O  0.86195613  0.77121603  0.68212588    -0.81200
O830        O  0.89405019  0.76718882  0.62266185    -0.83800
C831        C  0.91761802  0.80289680  0.62635029     1.03900
O832        O  0.90557885  0.84681542  0.62032933    -0.76600
O833        O  0.85309322  0.92517613  0.60803187    -0.76700
C834        C  0.85394071  0.93872651  0.64176752     1.03800
Cr835      Cr  0.79995781  0.86065263  0.63860582     1.93700
Cr836      Cr  0.83911893  0.76327196  0.62499218     1.93200
Cr837      Cr  0.85191554  0.85881675  0.58513534     1.39100
O838        O  0.83064573  0.82763240  0.61700631    -1.21800
O839        O  0.70116063  0.87918534  0.91847466    -0.84100
O840        O  0.70744202  0.79021577  0.88513939    -0.81100
C841        C  0.70009708  0.74570839  0.87597937     0.99400
O842        O  0.66589900  0.72878978  0.86871271    -0.81200
O843        O  0.63469240  0.73630055  0.93075505    -0.83800
C844        C  0.61953255  0.75531481  0.95467168     1.03900
O845        O  0.60554515  0.79796993  0.94905899    -0.76600
O846        O  0.67145840  0.85390749  0.96019566    -0.76800
C847        C  0.70139395  0.87092366  0.95351500     1.03900
O848        O  0.63737696  0.90375713  0.84643835    -0.84100
O849        O  0.64800492  0.81351439  0.81449678    -0.81100
C850        C  0.61762169  0.78801850  0.79880866     0.99400
O851        O  0.59679572  0.77229335  0.81867434    -0.81200
O852        O  0.56337808  0.77542835  0.87751175    -0.83800
C853        C  0.54601416  0.81627110  0.87665897     1.03900
O854        O  0.56475430  0.85602684  0.88563533    -0.76600
O855        O  0.62761311  0.91980909  0.90226600    -0.76700
C856        C  0.62672393  0.93292704  0.86850120     1.03800
Cr857      Cr  0.67043446  0.84497196  0.86768079     1.93700
Cr858      Cr  0.61690302  0.75829460  0.87520596     1.93200
Cr859      Cr  0.61890700  0.85416960  0.92137402     1.39100
O860        O  0.63543785  0.81899342  0.88763719    -1.21800
O861        O  0.90076038  0.63842050  0.95230656    -0.84100
O862        O  0.84775846  0.71087951  0.93896932    -0.81100
C863        C  0.87075760  0.74579312  0.95364497     0.99400
O864        O  0.89204938  0.76469848  0.93522545    -0.81200
O865        O  0.93294181  0.77487932  0.87899332    -0.83800
C866        C  0.96451807  0.75286477  0.89537562     1.03900
O867        O  0.96369211  0.70925612  0.90564821    -0.76600
O868        O  0.94361798  0.61966509  0.92209581    -0.76800
C869        C  0.93375761  0.62216736  0.95325462     1.03900
O870        O  0.86039045  0.59198369  0.87980248    -0.84100
O871        O  0.80771110  0.67260500  0.86393934    -0.81100
C872        C  0.79674252  0.71703946  0.86191358     0.99400
O873        O  0.82146730  0.75144892  0.87191942    -0.81200
O874        O  0.86413091  0.74700483  0.82106951    -0.83800
C875        C  0.88721223  0.72963138  0.80413539     1.03900
O876        O  0.91562785  0.70169809  0.82236252    -0.76600
O877        O  0.89413955  0.60993197  0.84028197    -0.76700
C878        C  0.87466828  0.57972878  0.85297951     1.03800
Cr879      Cr  0.85637009  0.65570243  0.90636104     1.93700
Cr880      Cr  0.87843156  0.75444325  0.87778194     1.93200
Cr881      Cr  0.92600597  0.66233524  0.87319554     1.39100
O882        O  0.88645120  0.69010853  0.88486267    -1.21800
O883        O  0.56019816  0.63045162  0.54928636    -0.84100
O884        O  0.61607007  0.69910280  0.56299527    -0.81100
C885        C  0.59748937  0.73863730  0.55160176     0.99400
O886        O  0.57729106  0.75861597  0.57075968    -0.81200
O887        O  0.53771376  0.77253718  0.62677779    -0.83800
C888        C  0.50448309  0.75621994  0.60833100     1.03900
O889        O  0.50095574  0.71273427  0.59641507    -0.76600
O890        O  0.51414624  0.62029490  0.57705604    -0.76800
C891        C  0.52569122  0.61920674  0.54689986     1.03900
O892        O  0.59819001  0.58294149  0.62226665    -0.84100
O893        O  0.65515665  0.65773557  0.63813580    -0.81100
C894        C  0.66888891  0.70050296  0.63851658     0.99400
O895        O  0.64601142  0.73693869  0.63158139    -0.81200
O896        O  0.60322760  0.73517083  0.68361563    -0.83800
C897        C  0.57750226  0.72252763  0.69894441     1.03900
O898        O  0.54730129  0.69811419  0.67937645    -0.76600
O899        O  0.56089463  0.60293747  0.65828918    -0.76700
C900        C  0.58160692  0.57200690  0.64755938     1.03800
Cr901      Cr  0.60511807  0.64509194  0.59559313     1.93700
Cr902      Cr  0.58994989  0.74554933  0.62728785     1.93200
Cr903      Cr  0.53447304  0.66025811  0.62729160     1.39100
O904        O  0.57683374  0.68270233  0.61743624    -1.21800
O905        O  0.80917181  0.13135093  0.55111889    -0.84100
O906        O  0.87039772  0.19343464  0.55954342    -0.81100
C907        C  0.85247337  0.23298654  0.54798854     0.99400
O908        O  0.83362666  0.25420347  0.56795393    -0.81200
O909        O  0.79637623  0.27170074  0.62561759    -0.83800
C910        C  0.76327709  0.25161221  0.61226901     1.03900
O911        O  0.76062894  0.20618091  0.60646807    -0.76600
O912        O  0.77513560  0.11321500  0.59044691    -0.76800
C913        C  0.77763723  0.11707223  0.55600775     1.03900
O914        O  0.85319655  0.08063369  0.62120204    -0.84100
O915        O  0.91209898  0.15253431  0.63241111    -0.81100
C916        C  0.92657442  0.19517596  0.63356561     0.99400
O917        O  0.90467269  0.23286840  0.62802156    -0.81200
O918        O  0.86567632  0.24107587  0.68339547    -0.83800
C919        C  0.84292848  0.22781439  0.70213291     1.03900
O920        O  0.81359892  0.20040029  0.68618156    -0.76600
O921        O  0.83144382  0.10555525  0.66869921    -0.76700
C922        C  0.84573668  0.07233439  0.65280712     1.03800
Cr923      Cr  0.85932632  0.14209690  0.59363013     1.93700
Cr924      Cr  0.84903764  0.24478609  0.62568601     1.93200
Cr925      Cr  0.79849514  0.15822029  0.63692273     1.39100
O926        O  0.83620878  0.18141221  0.61969114    -1.21800
O927        O  0.67707814  0.12960915  0.95413457    -0.84100
O928        O  0.61626889  0.19294837  0.94606316    -0.81100
C929        C  0.63330345  0.23342353  0.95570550     0.99400
O930        O  0.65179874  0.25318348  0.93486313    -0.81200
O931        O  0.68818031  0.26540304  0.87610127    -0.83800
C932        C  0.72106202  0.24491627  0.88974396     1.03900
O933        O  0.72342224  0.19969933  0.89614871    -0.76600
O934        O  0.70859762  0.10772839  0.91332449    -0.76800
C935        C  0.70763110  0.11326313  0.94815213     1.03900
O936        O  0.63071046  0.07724019  0.88583923    -0.84100
O937        O  0.57207872  0.15018051  0.87550978    -0.81100
C938        C  0.55828399  0.19345813  0.87328227     0.99400
O939        O  0.58054964  0.23036527  0.87642283    -0.81200
O940        O  0.61790335  0.23390603  0.81965570    -0.83800
C941        C  0.64026068  0.21963799  0.80070055     1.03900
O942        O  0.66963038  0.19246435  0.81687215    -0.76600
O943        O  0.65092536  0.09856824  0.83655038    -0.76700
C944        C  0.63727069  0.06668690  0.85408591     1.03800
Cr945      Cr  0.62589124  0.13989133  0.91267792     1.93700
Cr946      Cr  0.63566580  0.24046841  0.87736815     1.93200
Cr947      Cr  0.68485647  0.15178232  0.86676849     1.39100
O948        O  0.64808505  0.17706729  0.88466729    -1.21800
O949        O  0.95249936  0.40182540  0.91888164    -0.84100
O950        O  0.96926227  0.31836418  0.88698348    -0.81100
C951        C  0.96927998  0.27244272  0.88295071     0.99400
O952        O  0.93790743  0.24792497  0.87599358    -0.81200
O953        O  0.90233580  0.25145560  0.93578957    -0.83800
C954        C  0.88271202  0.26667361  0.95721716     1.03900
O955        O  0.86365607  0.30576380  0.94891281    -0.76600
O956        O  0.92564873  0.36939421  0.96063456    -0.75200
C957        C  0.95459162  0.38940158  0.95379084     1.03900
O958        O  0.88621299  0.41777434  0.84578645    -0.84100
O959        O  0.90740963  0.33133283  0.81501881    -0.81100
C960        C  0.88186616  0.29845686  0.80058926     0.99400
O961        O  0.86480738  0.27651718  0.82153897    -0.81200
O962        O  0.82853021  0.27653796  0.87841831    -0.83800
C963        C  0.80646830  0.31387492  0.87637505     1.03900
O964        O  0.82047556  0.35686308  0.88275502    -0.76600
O965        O  0.87704985  0.43074548  0.90208587    -0.76700
C966        C  0.87372973  0.44467039  0.86800646     1.03800
Cr967      Cr  0.92595977  0.36505931  0.86798614     1.93700
Cr968      Cr  0.88438810  0.26833003  0.87884026     1.93200
Cr969      Cr  0.87359977  0.36341442  0.92072669     1.39100
O970        O  0.89461501  0.33199110  0.88847667    -1.21800
O971        O  0.52257380  0.38921550  0.58526889    -0.84100
O972        O  0.51205677  0.29760937  0.60954149    -0.81100
C973        C  0.51774489  0.25219227  0.61478287     0.99400
O974        O  0.55180658  0.23467382  0.62624643    -0.81200
O975        O  0.58532816  0.24693774  0.56683492    -0.83800
C976        C  0.60218654  0.26669117  0.54468733     1.03900
O977        O  0.61758318  0.30835858  0.55275374    -0.76600
O978        O  0.55343309  0.36713784  0.54366870    -0.76800
C979        C  0.52289603  0.38246702  0.55031184     1.03900
O980        O  0.58317684  0.40717494  0.65970638    -0.84100
O981        O  0.56912387  0.31344578  0.68520522    -0.81100
C982        C  0.59889116  0.28680646  0.70091803     0.99400
O983        O  0.62058837  0.27215368  0.68134959    -0.81200
O984        O  0.65665927  0.27778617  0.62348619    -0.83800
C985        C  0.67631676  0.31701040  0.62582531     1.03900
O986        O  0.65966942  0.35857065  0.62118513    -0.76600
O987        O  0.59869723  0.42639526  0.60720581    -0.76700
C988        C  0.59617809  0.43767009  0.64032048     1.03800
Cr989      Cr  0.54998891  0.34998577  0.63369887     1.93700
Cr990      Cr  0.60225682  0.26323901  0.62374068     1.93200
Cr991      Cr  0.60554298  0.36238547  0.58400555     1.39100
O992        O  0.58624557  0.32535149  0.61455833    -1.21800
C993        C  0.99217408  0.39541160  0.98620772    -0.15200
C994        C  0.48606987  0.38940643  0.51750904    -0.30300
H995        H  0.01887199  0.39757079  0.97816351     0.13900
H996        H  0.45888306  0.38735428  0.52468278     0.14400
C997        C  0.63318791  0.23595204  0.75946492    -0.15200
C998        C  0.60698835  0.27134601  0.74247066    -0.30300
H999        H  0.65061582  0.21906967  0.74295774     0.13900
H1000       H  0.58957399  0.28815411  0.75902817     0.14400
C1001       C  0.62937771  0.25810320  0.99055079    -0.15200
C1002       C  0.60612002  0.24091828  0.51017431    -0.30300
H1003       H  0.64588806  0.29182749  0.99972259     0.13900
H1004       H  0.59037287  0.20658184  0.50144266     0.14400
C1005       C  0.75801618  0.27145792  0.89730443    -0.15200
C1006       C  0.76521551  0.30483597  0.87291660    -0.30300
H1007       H  0.78266268  0.25573319  0.91995141     0.13900
H1008       H  0.74191050  0.32125662  0.84941164     0.14400
C1009       C  0.00783480  0.25002338  0.88641336    -0.15200
C1010       C  0.51717834  0.20349201  0.87194570    -0.30300
H1011       H  0.03226446  0.27508312  0.89794216     0.13900
H1012       H  0.49381760  0.17812473  0.85763617     0.14400
C1013       C  0.84978053  0.24511907  0.74304588    -0.15200
C1014       C  0.87322769  0.28372020  0.75877818    -0.30300
H1015       H  0.83449563  0.22595475  0.76047662     0.13900
H1016       H  0.88796496  0.30342853  0.74111641     0.14400
C1017       C  0.87978930  0.23903716  0.99117443    -0.15200
C1018       C  0.85557803  0.25530153  0.51202384    -0.30300
H1019       H  0.89771593  0.20635429  0.00000962     0.13900
H1020       H  0.83927385  0.28905405  0.50245127     0.14400
C1021       C  0.96815907  0.20277113  0.63594337    -0.15200
C1022       C  0.48377908  0.21987785  0.60876903    -0.30300
H1023       H  0.99112014  0.17992143  0.65465786     0.13900
H1024       H  0.46652388  0.21127994  0.57883115     0.14400
C1025       C  0.71795125  0.31155094  0.62851255    -0.15200
C1026       C  0.72632342  0.27889072  0.60389769    -0.30300
H1027       H  0.74064322  0.32778056  0.65277397     0.13900
H1028       H  0.70211021  0.26304775  0.58074905     0.14400
C1029       C  0.74219038  0.10838171  0.52146179    -0.15200
C1030       C  0.74388668  0.10394368  0.98153305    -0.30300
H1031       H  0.71411879  0.10790512  0.52693261     0.13900
H1032       H  0.77128733  0.10333217  0.97469319     0.14400
C1033       C  0.58282574  0.52037285  0.66124816    -0.15200
C1034       C  0.60789114  0.48824711  0.65360842    -0.30300
H1035       H  0.55800624  0.50692130  0.66944959     0.13900
H1036       H  0.63181881  0.50283425  0.64443871     0.14400
C1037       C  0.87352026  0.52759622  0.84041954    -0.15200
C1038       C  0.85685478  0.49387655  0.85725345    -0.30300
H1039       H  0.89386798  0.51594193  0.82514819     0.13900
H1040       H  0.83764037  0.50641313  0.87355762     0.14400
C1041       C  0.96092068  0.60911702  0.99261795    -0.15200
C1042       C  0.49887532  0.60798809  0.50687805    -0.30300
H1043       H  0.94907156  0.61063513  0.01704910     0.13900
H1044       H  0.51141498  0.60890692  0.48292461     0.14400
C1045       C  0.61414656  0.98366752  0.85755856    -0.15200
C1046       C  0.63350448  0.01465967  0.84112411    -0.30300
H1047       H  0.59524052  0.99915668  0.87314324     0.13900
H1048       H  0.65306762  0.00061060  0.82578386     0.14400
C1049       C  0.58223366  0.73870017  0.73969390    -0.15200
C1050       C  0.60822990  0.77425007  0.75701514    -0.30300
H1051       H  0.56442870  0.72143499  0.75551677     0.13900
H1052       H  0.62561185  0.79150919  0.74072014     0.14400
C1053       C  0.61564191  0.72827676  0.98859681    -0.15200
C1054       C  0.60106560  0.76275349  0.51672909    -0.30300
H1055       H  0.62384386  0.68971095  0.99248339     0.13900
H1056       H  0.58338109  0.79545639  0.50694344     0.14400
C1057       C  0.73220031  0.71416081  0.87221007    -0.15200
C1058       C  0.75551384  0.73140948  0.85226841    -0.30300
H1059       H  0.73939088  0.68059965  0.88925493     0.13900
H1060       H  0.74765546  0.76599859  0.83664127     0.14400
C1061       C  0.50353243  0.81501702  0.86705627    -0.15200
C1062       C  0.00315361  0.77460449  0.90057980    -0.30300
H1063       H  0.48812592  0.80035022  0.83818174     0.13900
H1064       H  0.02719593  0.75755678  0.92307800     0.14400
C1065       C  0.86915368  0.98832853  0.65374973    -0.15200
C1066       C  0.84903647  0.02134455  0.66772556    -0.30300
H1067       H  0.88959993  0.00189683  0.63928386     0.13900
H1068       H  0.82797782  0.00910709  0.68186368     0.14400
C1069       C  0.88109251  0.74360575  0.76272657    -0.15200
C1070       C  0.85602880  0.78020008  0.74582641    -0.30300
H1071       H  0.89681333  0.72363612  0.74601184     0.13900
H1072       H  0.84094405  0.80035342  0.76307406     0.14400
C1073       C  0.83457992  0.73864620  0.50842383    -0.15200
C1074       C  0.87106372  0.76504406  0.99177556    -0.30300
H1075       H  0.81666819  0.70603009  0.49912334     0.13900
H1076       H  0.88868609  0.79746625  0.00288958     0.14400
C1077       C  0.95913490  0.79062792  0.63628691    -0.15200
C1078       C  0.46911952  0.78551374  0.60395005    -0.30300
H1079       H  0.97125797  0.77034201  0.66338876     0.13900
H1080       H  0.44973554  0.79198112  0.57448093     0.14400
C1081       C  0.71736361  0.74857472  0.62044002    -0.15200
C1082       C  0.71022727  0.70962926  0.64058334    -0.30300
H1083       H  0.69272776  0.77032063  0.60306453     0.13900
H1084       H  0.73365213  0.68611442  0.65770495     0.14400
C1085       C  0.73491654  0.90150428  0.52273707    -0.15200
C1086       C  0.73761520  0.87929034  0.98687475    -0.30300
H1087       H  0.70806196  0.90353229  0.53052677     0.13900
H1088       H  0.76528000  0.87994680  0.98057363     0.14400
loop_ 
_geom_bond_atom_site_label_1 
_geom_bond_atom_site_label_2 
_geom_bond_distance 
_geom_bond_site_symmetry_2 
_ccdc_geom_bond_type 
O1          Cr19   2.029       .  S
O1            C9   1.272       .  A
O2          Cr19   1.958       .  S
O2            C3   1.250       .  A
C3            O4   1.264       .  A
C3          C265   1.468       .  S
O4          Cr20   2.034       .  S
O5          Cr20   1.977       .  S
O5            C6   1.260       .  A
C6            O7   1.263       .  A
C6          C257   1.460       .  S
O7          Cr21   1.977       .  S
O8          Cr21   1.972       .  S
O8            C9   1.258       .  A
C9          C269   1.488       .  S
O10         Cr19   1.979       .  S
O10          C18   1.256       .  A
O11         Cr19   2.031       .  S
O11          C12   1.274       .  A
C12          O13   1.255       .  A
C12         C254   1.471       .  S
O13         Cr20   1.951       .  S
O14         Cr20   2.006       .  S
O14          C15   1.267       .  A
C15          O16   1.262       .  A
C15         C261   1.461       .  S
O16         Cr21   1.978       .  S
O17         Cr21   1.997       .  S
O17          C18   1.266       .  A
C18         C249   1.477       .  S
Cr19         O22   1.767       .  S
Cr20         O22   1.779       .  S
Cr21         O22   1.771       .  S
O23         Cr41   2.031       .  S
O23          C31   1.271       .  A
O24         Cr41   1.965       .  S
O24          C25   1.254       .  A
C25          O26   1.261       .  A
C25         C241   1.473       .  S
O26         Cr42   2.022       .  S
O27         Cr42   1.975       .  S
O27          C28   1.262       .  A
C28          O29   1.267       .  A
C28         C237   1.465       .  S
O29         Cr43   1.995       .  S
O30         Cr43   1.965       .  S
O30          C31   1.257       .  A
C31         C270   1.490       .  S
O32         Cr41   1.974       .  S
O32          C40   1.255       .  A
O33         Cr41   2.021       .  S
O33          C34   1.273       .  A
C34          O35   1.263       .  A
C34         C234   1.470       .  S
O35         Cr42   1.964       .  S
O36         Cr42   2.011       .  S
O36          C37   1.266       .  A
C37          O38   1.259       .  A
C37         C245   1.477       .  S
O38         Cr43   1.986       .  S
O39         Cr43   2.003       .  S
O39          C40   1.267       .  A
C40         C229   1.480       .  S
Cr41         O44   1.775       .  S
Cr42         O44   1.784       .  S
Cr43         O44   1.774       .  S
O45         Cr63   1.963       .  S
O45          C53   1.254       .  A
O46         Cr63   1.993       .  S
O46          C47   1.268       .  A
C47          O48   1.263       .  A
C47         C258   1.458       .  S
O48         Cr64   1.968       .  S
O49         Cr64   2.042       .  S
O49          C50   1.263       .  A
C50          O51   1.246       .  A
C50         C246   1.476       .  S
O51         Cr65   1.959       .  S
O52         Cr65   2.038       .  S
O52          C53   1.274       .  A
C53         C225   1.492       .  S
O54         Cr63   2.014       .  S
O54          C62   1.269       .  A
O55         Cr63   1.983       .  S
O55          C56   1.262       .  A
C56          O57   1.265       .  A
C56         C242   1.469       .  S
O57         Cr64   2.003       .  S
O58         Cr64   1.933       .  S
O58          C59   1.255       .  A
C59          O60   1.279       .  A
C59         C253   1.477       .  S
O60         Cr65   2.053       .  S
O61         Cr65   1.970       .  S
O61          C62   1.254       .  A
C62         C221   1.483       .  S
Cr63         O66   1.776       .  S
Cr64         O66   1.778       .  S
Cr65         O66   1.768       .  S
O67         Cr85   1.970       .  S
O67          C75   1.256       .  A
O68         Cr85   2.002       .  S
O68          C69   1.269       .  A
C69          O70   1.265       .  A
C69         C238   1.464       .  S
O70         Cr86   1.973       .  S
O71         Cr86   2.037       .  S
O71          C72   1.261       .  A
C72          O73   1.249       .  A
C72         C262   1.475   1_455  S
O73         Cr87   1.964       .  S
O74         Cr87   2.031       .  S
O74          C75   1.272       .  A
C75         C226   1.493   1_455  S
O76         Cr85   2.002       .  S
O76          C84   1.267       .  A
O77         Cr85   1.987       .  S
O77          C78   1.258       .  A
C78          O79   1.265       .  A
C78         C266   1.477       .  S
O79         Cr86   2.008       .  S
O80         Cr86   1.949       .  S
O80          C81   1.262       .  A
C81          O82   1.277       .  A
C81         C233   1.476       .  S
O82         Cr87   2.041       .  S
O83         Cr87   1.970       .  S
O83          C84   1.255       .  A
C84         C217   1.476       .  S
Cr85         O88   1.776       .  S
Cr86         O88   1.778       .  S
Cr87         O88   1.770       .  S
O89        Cr107   2.003       .  S
O89          C97   1.265       .  A
O90        Cr107   1.951       .  S
O90          C91   1.250       .  A
C91          O92   1.262       .  A
C91         C202   1.455       .  S
O92        Cr108   1.989       .  S
O93        Cr108   2.023       .  S
O93          C94   1.263       .  A
C94          O95   1.252       .  A
C94         C210   1.468       .  S
O95        Cr109   1.958       .  S
O96        Cr109   2.024       .  S
O96          C97   1.271       .  A
C97         C213   1.500       .  S
O98        Cr107   1.973       .  S
O98         C106   1.256       .  A
O99        Cr107   2.004       .  S
O99         C100   1.270       .  A
C100        O101   1.271       .  A
C100        C205   1.492       .  S
O101       Cr108   2.005       .  S
O102       Cr108   1.967       .  S
O102        C103   1.260       .  A
C103        O104   1.272       .  A
C103        C197   1.483       .  S
O104       Cr109   2.026       .  S
O105       Cr109   1.993       .  S
O105        C106   1.261       .  A
C106        C250   1.467       .  S
Cr107       O110   1.782       .  S
Cr108       O110   1.783       .  S
Cr109       O110   1.776       .  S
O111       Cr129   1.977       .  S
O111        C119   1.264       .  A
O112       Cr129   1.958       .  S
O112        C113   1.248       .  A
C113        O114   1.264       .  A
C113        C185   1.464       .  S
O114       Cr130   2.005       .  S
O115       Cr130   2.024       .  S
O115        C116   1.264       .  A
C116        O117   1.252       .  A
C116        C189   1.473       .  S
O117       Cr131   1.955       .  S
O118       Cr131   2.049       .  S
O118        C119   1.280       .  A
C119        C214   1.504       .  S
O120       Cr129   1.965       .  S
O120        C128   1.251       .  A
O121       Cr129   1.987       .  S
O121        C122   1.267       .  A
C122        O123   1.275       .  A
C122        C194   1.477       .  S
O123       Cr130   2.011       .  S
O124       Cr130   1.972       .  S
O124        C125   1.261       .  A
C125        O126   1.278       .  A
C125        C181   1.499       .  S
O126       Cr131   2.046       .  S
O127       Cr131   2.004       .  S
O127        C128   1.260       .  A
C128        C230   1.469   1_545  S
Cr129       O132   1.781       .  S
Cr130       O132   1.780       .  S
Cr131       O132   1.774       .  S
O133       Cr151   2.031       .  S
O133        C141   1.275       .  A
O134       Cr151   1.961       .  S
O134        C135   1.255       .  A
C135        O136   1.266       .  A
C135        C193   1.479       .  S
O136       Cr152   2.031       .  S
O137       Cr152   2.005       .  S
O137        C138   1.261       .  A
C138        O139   1.249       .  A
C138        C201   1.467       .  S
O139       Cr153   1.944       .  S
O140       Cr153   1.978       .  S
O140        C141   1.264       .  A
C141        C177   1.490       .  S
O142       Cr151   2.009       .  S
O142        C150   1.262       .  A
O143       Cr151   2.023       .  S
O143        C144   1.272       .  A
C144        O145   1.260       .  A
C144        C198   1.484       .  S
O145       Cr152   1.966       .  S
O146       Cr152   2.020       .  S
O146        C147   1.276       .  A
C147        O148   1.267       .  A
C147        C190   1.483       .  S
O148       Cr153   1.987       .  S
O149       Cr153   1.963       .  S
O149        C150   1.250       .  A
C150        C222   1.472       .  S
Cr151       O154   1.776       .  S
Cr152       O154   1.787       .  S
Cr153       O154   1.777       .  S
O155       Cr173   2.032       .  S
O155        C163   1.275       .  A
O156       Cr173   1.953       .  S
O156        C157   1.251       .  A
C157        O158   1.264       .  A
C157        C206   1.467   1_455  S
O158       Cr174   2.023       .  S
O159       Cr174   1.993       .  S
O159        C160   1.261       .  A
C160        O161   1.248       .  A
C160        C186   1.456       .  S
O161       Cr175   1.952       .  S
O162       Cr175   1.991       .  S
O162        C163   1.265       .  A
C163        C178   1.495   1_455  S
O164       Cr173   1.995       .  S
O164        C172   1.260       .  A
O165       Cr173   2.035       .  S
O165        C166   1.275       .  A
C166        O167   1.261       .  A
C166        C182   1.496       .  S
O167       Cr174   1.979       .  S
O168       Cr174   2.006       .  S
O168        C169   1.274       .  A
C169        O170   1.268       .  A
C169        C209   1.480       .  S
O170       Cr175   1.990       .  S
O171       Cr175   1.965       .  S
O171        C172   1.252       .  A
C172        C218   1.463       .  S
Cr173       O176   1.772       .  S
Cr174       O176   1.783       .  S
Cr175       O176   1.785       .  S
C177        H179   1.086       .  S
C177        C994   1.351       .  D
C178        H180   1.086       .  S
C178        C993   1.354   1_554  D
C181        H183   1.086       .  S
C181        C182   1.362       .  D
C182        H184   1.086       .  S
C185        H187   1.086       .  S
C185        C458   1.359       .  D
C186        H188   1.087       .  S
C186        C457   1.357   1_554  D
C189        H191   1.088       .  S
C189        C190   1.347       .  D
C190        H192   1.086       .  S
C193        H195   1.088       .  S
C193        C738   1.353       .  D
C194        H196   1.086   1_455  S
C194        C737   1.346       .  D
C197        H199   1.086       .  S
C197        C198   1.354       .  D
C198        H200   1.086       .  S
C201        H203   1.086       .  S
C201        C474   1.351       .  D
C202        H204   1.086       .  S
C202        C473   1.356   1_554  D
C205        H207   1.086       .  S
C205        C750   1.353       .  D
C206        H208   1.089       .  S
C206        C749   1.346       .  D
C209        H211   1.086       .  S
C209        C210   1.348       .  D
C210        H212   1.089       .  S
C213        H215   1.086       .  S
C213        C486   1.355   1_554  D
C214        H216   1.086       .  S
C214        C485   1.359       .  D
C217        H219   1.087       .  S
C217        C218   1.337       .  D
C218        H220   1.088       .  S
C221        H223   1.087       .  S
C221        C222   1.337       .  D
C222        H224   1.088       .  S
C225        H227   1.087       .  S
C225       C1042   1.342       .  D
C226        H228   1.087   1_654  S
C226       C1041   1.344   1_554  D
C229        H231   1.087       .  S
C229        C230   1.338       .  D
C230        H232   1.088       .  S
C233        H235   1.086       .  S
C233        C234   1.349       .  D
C234        H236   1.087       .  S
C237        H239   1.087       .  S
C237        C510   1.340       .  D
C238        H240   1.087       .  S
C238        C509   1.345   1_554  D
C241        H243   1.086       .  S
C241        C242   1.346       .  D
C242        H244   1.088       .  S
C245        H247   1.086   1_455  S
C245        C790   1.349   1_455  D
C246        H248   1.089       .  S
C246        C789   1.347       .  D
C249        H251   1.087       .  S
C249        C250   1.340   1_565  D
C250        H252   1.088   1_545  S
C253        H255   1.086       .  S
C253        C254   1.356       .  D
C254        H256   1.087       .  S
C257        H259   1.087       .  S
C257        C530   1.339   1_554  D
C258        H260   1.088       .  S
C258        C529   1.339       .  D
C261        H263   1.087       .  S
C261        C806   1.349       .  D
C262        H264   1.089       .  S
C262        C805   1.351       .  D
C265        H267   1.089       .  S
C265        C266   1.346       .  D
C266        H268   1.086       .  S
C269        H271   1.087       .  S
C269        C542   1.355   1_554  D
C270        H272   1.086       .  S
C270        C541   1.355       .  D
O273       Cr291   1.986       .  S
O273        C281   1.267       .  A
O274       Cr291   1.985       .  S
O274        C275   1.257       .  A
C275        O276   1.260       .  A
C275        C537   1.477       .  S
O276       Cr292   2.002       .  S
O277       Cr292   1.974       .  S
O277        C278   1.255       .  A
C278        O279   1.254       .  A
C278        C529   1.448       .  S
O279       Cr293   1.959       .  S
O280       Cr293   2.011       .  S
O280        C281   1.270       .  A
C281        C541   1.482       .  S
O282       Cr291   1.986       .  S
O282        C290   1.256       .  A
O283       Cr291   1.993       .  S
O283        C284   1.270       .  A
C284        O285   1.264       .  A
C284        C526   1.469       .  S
O285       Cr292   1.984       .  S
O286       Cr292   1.979       .  S
O286        C287   1.261       .  A
C287        O288   1.266       .  A
C287        C533   1.471       .  S
O288       Cr293   2.004       .  S
O289       Cr293   1.996       .  S
O289        C290   1.260       .  A
C290        C521   1.477       .  S
Cr291       O294   1.771       .  S
Cr292       O294   1.773       .  S
Cr293       O294   1.782       .  S
O295       Cr313   2.027       .  S
O295        C303   1.272       .  A
O296       Cr313   1.965       .  S
O296        C297   1.252       .  A
C297        O298   1.258       .  A
C297        C513   1.469       .  S
O298       Cr314   2.012       .  S
O299       Cr314   1.975       .  S
O299        C300   1.261       .  A
C300        O301   1.264       .  A
C300        C509   1.463       .  S
O301       Cr315   1.997       .  S
O302       Cr315   1.971       .  S
O302        C303   1.259       .  A
C303        C542   1.488       .  S
O304       Cr313   1.978       .  S
O304        C312   1.255       .  A
O305       Cr313   2.026       .  S
O305        C306   1.274       .  A
C306        O307   1.262       .  A
C306        C506   1.474       .  S
O307       Cr314   1.962       .  S
O308       Cr314   2.005       .  S
O308        C309   1.267       .  A
C309        O310   1.261       .  A
C309        C517   1.477       .  S
O310       Cr315   1.989       .  S
O311       Cr315   1.996       .  S
O311        C312   1.264       .  A
C312        C501   1.479       .  S
Cr313       O316   1.775       .  S
Cr314       O316   1.781       .  S
Cr315       O316   1.781       .  S
O317       Cr335   2.020       .  S
O317        C325   1.272       .  A
O318       Cr335   1.962       .  S
O318        C319   1.256       .  A
C319        O320   1.255       .  A
C319        C530   1.446       .  S
O320       Cr336   1.971       .  S
O321       Cr336   1.996       .  S
O321        C322   1.259       .  A
C322        O323   1.259       .  A
C322        C518   1.472       .  S
O323       Cr337   1.985       .  S
O324       Cr337   1.994       .  S
O324        C325   1.269       .  A
C325        C497   1.492       .  S
O326       Cr335   1.999       .  S
O326        C334   1.262       .  A
O327       Cr335   2.010       .  S
O327        C328   1.267       .  A
C328        O329   1.260       .  A
C328        C514   1.473       .  S
O329       Cr336   1.974       .  S
O330       Cr336   1.984       .  S
O330        C331   1.262       .  A
C331        O332   1.269       .  A
C331        C525   1.469       .  S
O332       Cr337   1.994       .  S
O333       Cr337   1.989       .  S
O333        C334   1.257       .  A
C334        C493   1.482       .  S
Cr335       O338   1.782       .  S
Cr336       O338   1.776       .  S
Cr337       O338   1.772       .  S
O339       Cr357   2.001       .  S
O339        C347   1.264       .  A
O340       Cr357   1.968       .  S
O340        C341   1.259       .  A
C341        O342   1.260       .  A
C341        C510   1.456       .  S
O342       Cr358   1.984       .  S
O343       Cr358   1.996       .  S
O343        C344   1.258       .  A
C344        O345   1.259       .  A
C344        C534   1.477   1_455  S
O345       Cr359   1.988       .  S
O346       Cr359   2.007       .  S
O346        C347   1.271       .  A
C347        C498   1.487   1_455  S
O348       Cr357   1.990       .  S
O348        C356   1.263       .  A
O349       Cr357   1.999       .  S
O349        C350   1.261       .  A
C350        O351   1.259       .  A
C350        C538   1.469       .  S
O351       Cr358   1.976       .  S
O352       Cr358   1.993       .  S
O352        C353   1.266       .  A
C353        O354   1.269       .  A
C353        C505   1.478       .  S
O354       Cr359   1.996       .  S
O355       Cr359   1.992       .  S
O355        C356   1.260       .  A
C356        C489   1.475       .  S
Cr357       O360   1.783       .  S
Cr358       O360   1.772       .  S
Cr359       O360   1.774       .  S
O361       Cr379   2.036       .  S
O361        C369   1.273       .  A
O362       Cr379   1.949       .  S
O362        C363   1.251       .  A
C363        O364   1.258       .  A
C363        C474   1.446       .  S
O364       Cr380   1.990       .  S
O365       Cr380   1.993       .  S
O365        C366   1.263       .  A
C366        O367   1.266       .  A
C366        C482   1.479       .  S
O367       Cr381   2.001       .  S
O368       Cr381   1.990       .  S
O368        C369   1.266       .  A
C369        C485   1.498       .  S
O370       Cr379   1.968       .  S
O370        C378   1.252       .  A
O371       Cr379   2.019       .  S
O371        C372   1.270       .  A
C372        O373   1.259       .  A
C372        C477   1.470       .  S
O373       Cr380   1.971       .  S
O374       Cr380   1.995       .  S
O374        C375   1.262       .  A
C375        O376   1.272       .  A
C375        C469   1.492       .  S
O376       Cr381   2.014       .  S
O377       Cr381   2.015       .  S
O377        C378   1.266       .  A
C378        C522   1.481       .  S
Cr379       O382   1.787       .  S
Cr380       O382   1.773       .  S
Cr381       O382   1.772       .  S
O383       Cr401   1.997       .  S
O383        C391   1.265       .  A
O384       Cr401   1.945       .  S
O384        C385   1.249       .  A
C385        O386   1.262       .  A
C385        C457   1.459       .  S
O386       Cr402   1.997       .  S
O387       Cr402   2.027       .  S
O387        C388   1.264       .  A
C388        O389   1.252       .  A
C388        C461   1.475       .  S
O389       Cr403   1.957       .  S
O390       Cr403   2.028       .  S
O390        C391   1.273       .  A
C391        C486   1.501       .  S
O392       Cr401   1.971       .  S
O392        C400   1.254       .  A
O393       Cr401   2.004       .  S
O393        C394   1.271       .  A
C394        O395   1.273       .  A
C394        C466   1.496       .  S
O395       Cr402   2.012       .  S
O396       Cr402   1.976       .  S
O396        C397   1.262       .  A
C397        O398   1.273       .  A
C397        C453   1.488       .  S
O398       Cr403   2.026       .  S
O399       Cr403   1.997       .  S
O399        C400   1.260       .  A
C400        C502   1.468       .  S
Cr401       O404   1.783       .  S
Cr402       O404   1.785       .  S
Cr403       O404   1.778       .  S
O405       Cr423   2.031       .  S
O405        C413   1.275       .  A
O406       Cr423   1.964       .  S
O406        C407   1.255       .  A
C407        O408   1.262       .  A
C407        C465   1.475       .  S
O408       Cr424   2.018       .  S
O409       Cr424   1.995       .  S
O409        C410   1.260       .  A
C410        O411   1.247       .  A
C410        C473   1.456       .  S
O411       Cr425   1.945       .  S
O412       Cr425   1.987       .  S
O412        C413   1.265       .  A
C413        C449   1.494       .  S
O414       Cr423   2.005       .  S
O414        C422   1.261       .  A
O415       Cr423   2.028       .  S
O415        C416   1.274       .  A
C416        O417   1.260       .  A
C416        C470   1.487       .  S
O417       Cr424   1.971       .  S
O418       Cr424   2.010       .  S
O418        C419   1.274       .  A
C419        O420   1.270       .  A
C419        C462   1.487       .  S
O420       Cr425   1.995       .  S
O421       Cr425   1.967       .  S
O421        C422   1.250       .  A
C422        C494   1.473       .  S
Cr423       O426   1.776       .  S
Cr424       O426   1.789       .  S
Cr425       O426   1.787       .  S
O427       Cr445   2.030       .  S
O427        C435   1.274       .  A
O428       Cr445   1.958       .  S
O428        C429   1.253       .  A
C429        O430   1.264       .  A
C429        C478   1.474   1_455  S
O430       Cr446   2.027       .  S
O431       Cr446   2.002       .  S
O431        C432   1.263       .  A
C432        O433   1.248       .  A
C432        C458   1.464       .  S
O433       Cr447   1.956       .  S
O434       Cr447   1.989       .  S
O434        C435   1.265       .  A
C435        C450   1.494   1_455  S
O436       Cr445   1.994       .  S
O436        C444   1.260       .  A
O437       Cr445   2.028       .  S
O437        C438   1.272       .  A
C438        O439   1.260       .  A
C438        C454   1.490       .  S
O439       Cr446   1.972       .  S
O440       Cr446   2.007       .  S
O440        C441   1.271       .  A
C441        O442   1.268       .  A
C441        C481   1.464       .  S
O442       Cr447   1.981       .  S
O443       Cr447   1.975       .  S
O443        C444   1.254       .  A
C444        C490   1.469       .  S
Cr445       O448   1.774       .  S
Cr446       O448   1.782       .  S
Cr447       O448   1.786       .  S
C449        H451   1.086       .  S
C449        C722   1.353   1_556  D
C450        H452   1.086       .  S
C450        C721   1.353       .  D
C453        H455   1.086       .  S
C453        C454   1.356       .  D
C454        H456   1.086       .  S
C457        H459   1.086   1_556  S
C458        H460   1.086       .  S
C461        H463   1.088       .  S
C461        C462   1.350       .  D
C462        H464   1.086       .  S
C465        H467   1.088       .  S
C465       C1010   1.354       .  D
C466        H468   1.085   1_455  S
C466       C1009   1.354       .  D
C469        H471   1.086       .  S
C469        C470   1.361       .  D
C470        H472   1.086       .  S
C473        H475   1.086   1_556  S
C474        H476   1.087       .  S
C477        H479   1.088       .  S
C477       C1022   1.342       .  D
C478        H480   1.088       .  S
C478       C1021   1.351       .  D
C481        H483   1.087       .  S
C481        C482   1.348       .  D
C482        H484   1.087       .  S
C485        H487   1.087       .  S
C486        H488   1.086       .  S
C489        H491   1.088       .  S
C489        C490   1.337       .  D
C490        H492   1.087       .  S
C493        H495   1.088       .  S
C493        C494   1.338       .  D
C494        H496   1.087       .  S
C497        H499   1.087       .  S
C497        C770   1.354   1_556  D
C498        H500   1.087   1_655  S
C498        C769   1.339       .  D
C501        H503   1.087       .  S
C501        C502   1.339   1_565  D
C502        H504   1.088   1_545  S
C505        H507   1.086       .  S
C505        C506   1.351       .  D
C506        H508   1.087       .  S
C509        H511   1.087   1_556  S
C510        H512   1.087       .  S
C513        H515   1.086       .  S
C513        C514   1.345       .  D
C514        H516   1.088       .  S
C517        H519   1.086   1_455  S
C517       C1062   1.347       .  D
C518        H520   1.087       .  S
C518       C1061   1.347       .  D
C521        H523   1.087       .  S
C521        C522   1.340   1_565  D
C522        H524   1.087   1_545  S
C525        H527   1.086       .  S
C525        C526   1.355       .  D
C526        H528   1.086       .  S
C529        H531   1.087       .  S
C530        H532   1.087       .  S
C533        H535   1.088       .  S
C533       C1078   1.344       .  D
C534        H536   1.086       .  S
C534       C1077   1.347       .  D
C537        H539   1.086       .  S
C537        C538   1.351       .  D
C538        H540   1.087       .  S
C541        H543   1.087       .  S
C542        H544   1.087       .  S
O545       Cr563   2.020       .  S
O545        C553   1.270       .  A
O546       Cr563   1.967       .  S
O546        C547   1.254       .  A
C547        O548   1.261       .  A
C547        C809   1.476       .  S
O548       Cr564   2.016       .  S
O549       Cr564   1.989       .  S
O549        C550   1.263       .  A
C550        O551   1.257       .  A
C550        C801   1.461       .  S
O551       Cr565   1.972       .  S
O552       Cr565   1.983       .  S
O552        C553   1.261       .  A
C553        C813   1.488       .  S
O554       Cr563   1.982       .  S
O554        C562   1.255       .  A
O555       Cr563   2.005       .  S
O555        C556   1.270       .  A
C556        O557   1.264       .  A
C556        C798   1.471       .  S
O557       Cr564   1.978       .  S
O558       Cr564   2.005       .  S
O558        C559   1.268       .  A
C559        O560   1.266       .  A
C559        C805   1.482       .  S
O560       Cr565   1.997       .  S
O561       Cr565   1.987       .  S
O561        C562   1.261       .  A
C562        C793   1.478       .  S
Cr563       O566   1.779       .  S
Cr564       O566   1.782       .  S
Cr565       O566   1.782       .  S
O567       Cr585   2.020       .  S
O567        C575   1.269       .  A
O568       Cr585   1.964       .  S
O568        C569   1.253       .  A
C569        O570   1.262       .  A
C569        C785   1.471       .  S
O570       Cr586   2.028       .  S
O571       Cr586   1.987       .  S
O571        C572   1.261       .  A
C572        O573   1.258       .  A
C572        C781   1.462       .  S
O573       Cr587   1.968       .  S
O574       Cr587   1.985       .  S
O574        C575   1.261       .  A
C575        C814   1.489       .  S
O576       Cr585   1.990       .  S
O576        C584   1.260       .  A
O577       Cr585   2.017       .  S
O577        C578   1.271       .  A
C578        O579   1.261       .  A
C578        C778   1.469       .  S
O579       Cr586   1.962       .  S
O580       Cr586   2.019       .  S
O580        C581   1.272       .  A
C581        O582   1.264       .  A
C581        C789   1.483       .  S
O582       Cr587   1.992       .  S
O583       Cr587   1.976       .  S
O583        C584   1.257       .  A
C584        C773   1.466       .  S
Cr585       O588   1.772       .  S
Cr586       O588   1.783       .  S
Cr587       O588   1.776       .  S
O589       Cr607   1.959       .  S
O589        C597   1.253       .  A
O590       Cr607   2.003       .  S
O590        C591   1.269       .  A
C591        O592   1.270       .  A
C591        C802   1.456       .  S
O592       Cr608   1.970       .  S
O593       Cr608   2.031       .  S
O593        C594   1.256       .  A
C594        O595   1.244       .  A
C594        C790   1.473       .  S
O595       Cr609   1.966       .  S
O596       Cr609   2.027       .  S
O596        C597   1.271       .  A
C597        C769   1.486       .  S
O598       Cr607   2.009       .  S
O598        C606   1.269       .  A
O599       Cr607   1.993       .  S
O599        C600   1.260       .  A
C600        O601   1.262       .  A
C600        C786   1.483       .  S
O601       Cr608   1.994       .  S
O602       Cr608   1.945       .  S
O602        C603   1.265       .  A
C603        O604   1.282       .  A
C603        C797   1.481       .  S
O604       Cr609   2.053       .  S
O605       Cr609   1.962       .  S
O605        C606   1.253       .  A
C606        C765   1.479       .  S
Cr607       O610   1.780       .  S
Cr608       O610   1.776       .  S
Cr609       O610   1.769       .  S
O611       Cr629   2.021       .  S
O611        C619   1.273       .  A
O612       Cr629   1.958       .  S
O612        C613   1.254       .  A
C613        O614   1.259       .  A
C613        C782   1.452       .  S
O614       Cr630   1.982       .  S
O615       Cr630   2.001       .  S
O615        C616   1.260       .  A
C616        O617   1.256       .  A
C616        C806   1.476       .  S
O617       Cr631   1.981       .  S
O618       Cr631   1.990       .  S
O618        C619   1.267       .  A
C619        C770   1.490       .  S
O620       Cr629   1.990       .  S
O620        C628   1.260       .  A
O621       Cr629   2.013       .  S
O621        C622   1.266       .  A
C622        O623   1.260       .  A
C622        C810   1.478       .  S
O623       Cr630   1.976       .  S
O624       Cr630   1.995       .  S
O624        C625   1.267       .  A
C625        O626   1.270       .  A
C625        C777   1.477       .  S
O626       Cr631   1.993       .  S
O627       Cr631   1.986       .  S
O627        C628   1.256       .  A
C628        C761   1.474       .  S
Cr629       O632   1.786       .  S
Cr630       O632   1.771       .  S
Cr631       O632   1.779       .  S
O633       Cr651   1.986       .  S
O633        C641   1.263       .  A
O634       Cr651   1.968       .  S
O634        C635   1.252       .  A
C635        O636   1.263       .  A
C635        C746   1.462       .  S
O636       Cr652   1.994       .  S
O637       Cr652   2.027       .  S
O637        C638   1.264       .  A
C638        O639   1.251       .  A
C638        C754   1.469       .  S
O639       Cr653   1.953       .  S
O640       Cr653   2.032       .  S
O640        C641   1.274       .  A
C641        C757   1.497       .  S
O642       Cr651   1.975       .  S
O642        C650   1.256       .  A
O643       Cr651   1.988       .  S
O643        C644   1.265       .  A
C644        O645   1.274       .  A
C644        C749   1.479       .  S
O645       Cr652   2.011       .  S
O646       Cr652   1.977       .  S
O646        C647   1.262       .  A
C647        O648   1.274       .  A
C647        C741   1.493       .  S
O648       Cr653   2.033       .  S
O649       Cr653   1.993       .  S
O649        C650   1.259       .  A
C650        C794   1.467       .  S
Cr651       O654   1.781       .  S
Cr652       O654   1.780       .  S
Cr653       O654   1.772       .  S
O655       Cr673   1.994       .  S
O655        C663   1.261       .  A
O656       Cr673   1.979       .  S
O656        C657   1.259       .  A
C657        O658   1.264       .  A
C657        C729   1.463       .  S
O658       Cr674   1.986       .  S
O659       Cr674   2.022       .  S
O659        C660   1.262       .  A
C660        O661   1.249       .  A
C660        C733   1.461       .  S
O661       Cr675   1.956       .  S
O662       Cr675   2.024       .  S
O662        C663   1.269       .  A
C663        C758   1.498       .  S
O664       Cr673   1.995       .  S
O664        C672   1.267       .  A
O665       Cr673   2.002       .  S
O665        C666   1.268       .  A
C666        O667   1.269       .  A
C666        C738   1.493       .  S
O667       Cr674   2.000       .  S
O668       Cr674   1.973       .  S
O668        C669   1.262       .  A
C669        O670   1.274       .  A
C669        C725   1.489       .  S
O670       Cr675   2.036       .  S
O671       Cr675   1.977       .  S
O671        C672   1.257       .  A
C672        C774   1.476       .  S
Cr673       O676   1.779       .  S
Cr674       O676   1.777       .  S
Cr675       O676   1.774       .  S
O677       Cr695   2.037       .  S
O677        C685   1.276       .  A
O678       Cr695   1.955       .  S
O678        C679   1.255       .  A
C679        O680   1.266       .  A
C679        C737   1.465   1_655  S
O680       Cr696   2.021       .  S
O681       Cr696   2.004       .  S
O681        C682   1.262       .  A
C682        O683   1.250       .  A
C682        C745   1.469       .  S
O683       Cr697   1.959       .  S
O684       Cr697   1.985       .  S
O684        C685   1.265       .  A
C685        C721   1.494       .  S
O686       Cr695   2.007       .  S
O686        C694   1.261       .  A
O687       Cr695   2.026       .  S
O687        C688   1.271       .  A
C688        O689   1.261       .  A
C688        C742   1.493       .  S
O689       Cr696   1.980       .  S
O690       Cr696   2.013       .  S
O690        C691   1.275       .  A
C691        O692   1.264       .  A
C691        C734   1.468       .  S
O692       Cr697   1.981       .  S
O693       Cr697   1.966       .  S
O693        C694   1.251       .  A
C694        C766   1.467       .  S
Cr695       O698   1.770       .  S
Cr696       O698   1.781       .  S
Cr697       O698   1.778       .  S
O699       Cr717   2.029       .  S
O699        C707   1.273       .  A
O700       Cr717   1.960       .  S
O700        C701   1.255       .  A
C701        O702   1.266       .  A
C701        C750   1.480       .  S
O702       Cr718   2.035       .  S
O703       Cr718   2.003       .  S
O703        C704   1.264       .  A
C704        O705   1.250       .  A
C704        C730   1.466       .  S
O705       Cr719   1.954       .  S
O706       Cr719   1.988       .  S
O706        C707   1.264       .  A
C707        C722   1.494       .  S
O708       Cr717   1.994       .  S
O708        C716   1.260       .  A
O709       Cr717   2.024       .  S
O709        C710   1.271       .  A
C710        O711   1.261       .  A
C710        C726   1.489       .  S
O711       Cr718   1.978       .  S
O712       Cr718   2.008       .  S
O712        C713   1.273       .  A
C713        O714   1.267       .  A
C713        C753   1.482       .  S
O714       Cr719   1.991       .  S
O715       Cr719   1.971       .  S
O715        C716   1.253       .  A
C716        C762   1.467       .  S
Cr717       O720   1.772       .  S
Cr718       O720   1.783       .  S
Cr719       O720   1.784       .  S
C721        H723   1.086   1_655  S
C722        H724   1.086       .  S
C725        H727   1.086       .  S
C725        C726   1.354       .  D
C726        H728   1.086       .  S
C729        H731   1.087       .  S
C729       C1002   1.352       .  D
C730        H732   1.086       .  S
C730       C1001   1.357   1_554  D
C733        H735   1.089       .  S
C733        C734   1.342       .  D
C734        H736   1.086       .  S
C737        H739   1.089       .  S
C738        H740   1.086       .  S
C741        H743   1.086       .  S
C741        C742   1.357       .  D
C742        H744   1.086       .  S
C745        H747   1.086       .  S
C745       C1018   1.356       .  D
C746        H748   1.087       .  S
C746       C1017   1.356   1_554  D
C749        H751   1.086       .  S
C750        H752   1.088       .  S
C753        H755   1.086       .  S
C753        C754   1.347       .  D
C754        H756   1.089       .  S
C757        H759   1.086       .  S
C757       C1030   1.354   1_554  D
C758        H760   1.086       .  S
C758       C1029   1.355       .  D
C761        H763   1.088       .  S
C761        C762   1.336       .  D
C762        H764   1.087       .  S
C765        H767   1.088       .  S
C765        C766   1.335       .  D
C766        H768   1.087       .  S
C769        H771   1.087       .  S
C770        H772   1.087       .  S
C773        H775   1.088   1_565  S
C773        C774   1.340   1_565  D
C774        H776   1.087       .  S
C777        H779   1.087       .  S
C777        C778   1.351       .  D
C778        H780   1.087       .  S
C781        H783   1.086       .  S
C781       C1054   1.348       .  D
C782        H784   1.087       .  S
C782       C1053   1.346   1_554  D
C785        H787   1.088       .  S
C785        C786   1.352       .  D
C786        H788   1.086       .  S
C789        H791   1.086       .  S
C790        H792   1.088   1_655  S
C793        H795   1.086       .  S
C793        C794   1.340   1_565  D
C794        H796   1.088   1_545  S
C797        H799   1.086       .  S
C797        C798   1.350       .  D
C798        H800   1.087       .  S
C801        H803   1.086       .  S
C801       C1074   1.351   1_554  D
C802        H804   1.087       .  S
C802       C1073   1.353       .  D
C805        H807   1.086       .  S
C806        H808   1.086       .  S
C809        H811   1.086       .  S
C809        C810   1.348       .  D
C810        H812   1.088       .  S
C813        H815   1.087       .  S
C813       C1086   1.354   1_554  D
C814        H816   1.087       .  S
C814       C1085   1.352       .  D
O817       Cr835   2.029       .  S
O817        C825   1.273       .  A
O818       Cr835   1.960       .  S
O818        C819   1.254       .  A
C819        O820   1.263       .  A
C819       C1081   1.472       .  S
O820       Cr836   2.025       .  S
O821       Cr836   2.003       .  S
O821        C822   1.262       .  A
C822        O823   1.253       .  A
C822       C1073   1.469       .  S
O823       Cr837   1.953       .  S
O824       Cr837   1.978       .  S
O824        C825   1.262       .  A
C825       C1085   1.489       .  S
O826       Cr835   1.995       .  S
O826        C834   1.259       .  A
O827       Cr835   2.018       .  S
O827        C828   1.271       .  A
C828        O829   1.259       .  A
C828       C1070   1.479       .  S
O829       Cr836   1.970       .  S
O830       Cr836   2.006       .  S
O830        C831   1.269       .  A
C831        O832   1.266       .  A
C831       C1077   1.463       .  S
O832       Cr837   1.981       .  S
O833       Cr837   1.974       .  S
O833        C834   1.255       .  A
C834       C1065   1.468       .  S
Cr835       O838   1.773       .  S
Cr836       O838   1.785       .  S
Cr837       O838   1.778       .  S
O839       Cr857   2.039       .  S
O839        C847   1.275       .  A
O840       Cr857   1.967       .  S
O840        C841   1.259       .  A
C841        O842   1.263       .  A
C841       C1057   1.476       .  S
O842       Cr858   2.012       .  S
O843       Cr858   1.990       .  S
O843        C844   1.259       .  A
C844        O845   1.255       .  A
C844       C1053   1.468       .  S
O845       Cr859   1.965       .  S
O846       Cr859   1.972       .  S
O846        C847   1.262       .  A
C847       C1086   1.490       .  S
O848       Cr857   1.998       .  S
O848        C856   1.258       .  A
O849       Cr857   2.016       .  S
O849        C850   1.269       .  A
C850        O851   1.259       .  A
C850       C1050   1.479       .  S
O851       Cr858   1.970       .  S
O852       Cr858   2.006       .  S
O852        C853   1.269       .  A
C853        O854   1.262       .  A
C853       C1061   1.459       .  S
O854       Cr859   1.975       .  S
O855       Cr859   1.974       .  S
O855        C856   1.255       .  A
C856       C1045   1.468       .  S
Cr857       O860   1.777       .  S
Cr858       O860   1.783       .  S
Cr859       O860   1.779       .  S
O861       Cr879   1.967       .  S
O861        C869   1.256       .  A
O862       Cr879   1.981       .  S
O862        C863   1.262       .  A
C863        O864   1.266       .  A
C863       C1074   1.460       .  S
O864       Cr880   1.985       .  S
O865       Cr880   2.026       .  S
O865        C866   1.258       .  A
C866        O867   1.246       .  A
C866       C1062   1.469   1_655  S
O867       Cr881   1.960       .  S
O868       Cr881   2.038       .  S
O868        C869   1.274       .  A
C869       C1041   1.492       .  S
O870       Cr879   2.000       .  S
O870        C878   1.266       .  A
O871       Cr879   1.988       .  S
O871        C872   1.266       .  A
C872        O873   1.264       .  A
C872       C1058   1.468       .  S
O873       Cr880   1.996       .  S
O874       Cr880   1.949       .  S
O874        C875   1.260       .  A
C875        O876   1.280       .  A
C875       C1069   1.484       .  S
O876       Cr881   2.051       .  S
O877       Cr881   1.974       .  S
O877        C878   1.254       .  A
C878       C1037   1.482       .  S
Cr879       O882   1.779       .  S
Cr880       O882   1.779       .  S
Cr881       O882   1.769       .  S
O883       Cr901   1.967       .  S
O883        C891   1.256       .  A
O884       Cr901   1.995       .  S
O884        C885   1.266       .  A
C885        O886   1.264       .  A
C885       C1054   1.455       .  S
O886       Cr902   1.970       .  S
O887       Cr902   2.011       .  S
O887        C888   1.255       .  A
C888        O889   1.249       .  A
C888       C1078   1.467       .  S
O889       Cr903   1.975       .  S
O890       Cr903   2.034       .  S
O890        C891   1.273       .  A
C891       C1042   1.493       .  S
O892       Cr901   1.998       .  S
O892        C900   1.266       .  A
O893       Cr901   1.998       .  S
O893        C894   1.262       .  A
C894        O895   1.262       .  A
C894       C1082   1.487       .  S
O895       Cr902   1.988       .  S
O896       Cr902   1.950       .  S
O896        C897   1.262       .  A
C897        O898   1.281       .  A
C897       C1049   1.484       .  S
O898       Cr903   2.054       .  S
O899       Cr903   1.981       .  S
O899        C900   1.258       .  A
C900       C1033   1.485       .  S
Cr901       O904   1.782       .  S
Cr902       O904   1.778       .  S
Cr903       O904   1.776       .  S
O905       Cr923   1.992       .  S
O905        C913   1.262       .  A
O906       Cr923   1.979       .  S
O906        C907   1.257       .  A
C907        O908   1.265       .  A
C907       C1018   1.463       .  S
O908       Cr924   1.990       .  S
O909       Cr924   2.029       .  S
O909        C910   1.262       .  A
C910        O911   1.251       .  A
C910       C1026   1.469       .  S
O911       Cr925   1.959       .  S
O912       Cr925   2.026       .  S
O912        C913   1.271       .  A
C913       C1029   1.497       .  S
O914       Cr923   1.992       .  S
O914        C922   1.264       .  A
O915       Cr923   1.997       .  S
O915        C916   1.267       .  A
C916        O917   1.270       .  A
C916       C1021   1.486       .  S
O917       Cr924   2.003       .  S
O918       Cr924   1.973       .  S
O918        C919   1.262       .  A
C919        O920   1.274       .  A
C919       C1013   1.486       .  S
O920       Cr925   2.032       .  S
O921       Cr925   1.982       .  S
O921        C922   1.257       .  A
C922       C1066   1.479       .  S
Cr923       O926   1.782       .  S
Cr924       O926   1.779       .  S
Cr925       O926   1.773       .  S
O927       Cr945   1.998       .  S
O927        C935   1.263       .  A
O928       Cr945   1.969       .  S
O928        C929   1.255       .  A
C929        O930   1.265       .  A
C929       C1001   1.461       .  S
O930       Cr946   1.992       .  S
O931       Cr946   2.021       .  S
O931        C932   1.262       .  A
C932        O933   1.249       .  A
C932       C1005   1.463       .  S
O933       Cr947   1.956       .  S
O934       Cr947   2.022       .  S
O934        C935   1.269       .  A
C935       C1030   1.496       .  S
O936       Cr945   1.987       .  S
O936        C944   1.264       .  A
O937       Cr945   2.003       .  S
O937        C938   1.269       .  A
C938        O939   1.268       .  A
C938       C1010   1.489       .  S
O939       Cr946   1.992       .  S
O940       Cr946   1.977       .  S
O940        C941   1.262       .  A
C941        O942   1.273       .  A
C941        C997   1.491       .  S
O942       Cr947   2.034       .  S
O943       Cr947   1.984       .  S
O943        C944   1.259       .  A
C944       C1046   1.480       .  S
Cr945       O948   1.781       .  S
Cr946       O948   1.780       .  S
Cr947       O948   1.775       .  S
O949       Cr967   2.039       .  S
O949        C957   1.278       .  A
O950       Cr967   1.962       .  S
O950        C951   1.256       .  A
C951        O952   1.268       .  A
C951       C1009   1.484   1_655  S
O952       Cr968   2.035       .  S
O953       Cr968   1.999       .  S
O953        C954   1.261       .  A
C954        O955   1.250       .  A
C954       C1017   1.465       .  S
O955       Cr969   1.961       .  S
O956       Cr969   1.982       .  S
O956        C957   1.265       .  A
C957        C993   1.496       .  S
O958       Cr967   2.008       .  S
O958        C966   1.260       .  A
O959       Cr967   2.026       .  S
O959        C960   1.271       .  A
C960        O961   1.259       .  A
C960       C1014   1.488       .  S
O961       Cr968   1.970       .  S
O962       Cr968   2.016       .  S
O962        C963   1.276       .  A
C963        O964   1.265       .  A
C963       C1006   1.471       .  S
O964       Cr969   1.983       .  S
O965       Cr969   1.968       .  S
O965        C966   1.251       .  A
C966       C1038   1.471       .  S
Cr967       O970   1.772       .  S
Cr968       O970   1.780       .  S
Cr969       O970   1.780       .  S
O971       Cr989   2.021       .  S
O971        C979   1.270       .  A
O972       Cr989   1.977       .  S
O972        C973   1.257       .  A
C973        O974   1.259       .  A
C973       C1022   1.466       .  S
O974       Cr990   2.002       .  S
O975       Cr990   1.991       .  S
O975        C976   1.260       .  A
C976        O977   1.255       .  A
C976       C1002   1.465       .  S
O977       Cr991   1.971       .  S
O978       Cr991   1.988       .  S
O978        C979   1.263       .  A
C979        C994   1.488       .  S
O980       Cr989   2.005       .  S
O980        C988   1.263       .  A
O981       Cr989   2.026       .  S
O981        C982   1.272       .  A
C982        O983   1.263       .  A
C982        C998   1.490       .  S
O983       Cr990   1.980       .  S
O984       Cr990   2.000       .  S
O984        C985   1.268       .  A
C985        O986   1.265       .  A
C985       C1025   1.478       .  S
O986       Cr991   1.995       .  S
O987       Cr991   1.974       .  S
O987        C988   1.256       .  A
C988       C1034   1.472       .  S
Cr989       O992   1.779       .  S
Cr990       O992   1.782       .  S
Cr991       O992   1.782       .  S
C993        H995   1.086   1_655  S
C994        H996   1.087       .  S
C997        H999   1.086       .  S
C997        C998   1.354       .  D
C998       H1000   1.086       .  S
C1001      H1003   1.086       .  S
C1002      H1004   1.086       .  S
C1005      H1007   1.089       .  S
C1005      C1006   1.343       .  D
C1006      H1008   1.086       .  S
C1009      H1011   1.088       .  S
C1010      H1012   1.085       .  S
C1013      H1015   1.086       .  S
C1013      C1014   1.355       .  D
C1014      H1016   1.086       .  S
C1017      H1019   1.086   1_556  S
C1018      H1020   1.086       .  S
C1021      H1023   1.086       .  S
C1022      H1024   1.087       .  S
C1025      H1027   1.086       .  S
C1025      C1026   1.347       .  D
C1026      H1028   1.089       .  S
C1029      H1031   1.086       .  S
C1030      H1032   1.087       .  S
C1033      H1035   1.087       .  S
C1033      C1034   1.341       .  D
C1034      H1036   1.088       .  S
C1037      H1039   1.087       .  S
C1037      C1038   1.339       .  D
C1038      H1040   1.088       .  S
C1041      H1043   1.087   1_556  S
C1042      H1044   1.087       .  S
C1045      H1047   1.088       .  S
C1045      C1046   1.342   1_565  D
C1046      H1048   1.086       .  S
C1049      H1051   1.086       .  S
C1049      C1050   1.354       .  D
C1050      H1052   1.087       .  S
C1053      H1055   1.087       .  S
C1054      H1056   1.087       .  S
C1057      H1059   1.086       .  S
C1057      C1058   1.345       .  D
C1058      H1060   1.088       .  S
C1061      H1063   1.088       .  S
C1062      H1064   1.089       .  S
C1065      H1067   1.088   1_565  S
C1065      C1066   1.341   1_565  D
C1066      H1068   1.087       .  S
C1069      H1071   1.086       .  S
C1069      C1070   1.355       .  D
C1070      H1072   1.087       .  S
C1073      H1075   1.086       .  S
C1074      H1076   1.087   1_556  S
C1077      H1079   1.087       .  S
C1078      H1080   1.087       .  S
C1081      H1083   1.088       .  S
C1081      C1082   1.353       .  D
C1082      H1084   1.085       .  S
C1085      H1087   1.086       .  S
C1086      H1088   1.086       .  S
