geometry optimzed in LAMMPS
_audit_creation_date              2020-12-01 
_audit_creation_method            'lammps2cif' 
_symmetry_space_group_name_H-M    'P1' 
_symmetry_Int_Tables_number       1 
_symmetry_cell_setting            triclinic 
loop_ 
_symmetry_equiv_pos_as_xyz 
  x,y,z 
_cell_length_a                    41.83143334 
_cell_length_b                    21.39529526120893 
_cell_length_c                    86.07913912758637 
_cell_angle_alpha                 89.57751219868058 
_cell_angle_beta                  89.62144175558736 
_cell_angle_gamma                 90.0644387060317 
loop_ 
_atom_site_label 
_atom_site_type_symbol 
_atom_site_fract_x 
_atom_site_fract_y 
_atom_site_fract_z 
_atom_site_charge 
O1          O  0.68951497  0.01534364  0.18247997    -0.75100
O2          O  0.78033076  0.98633159  0.18072368    -0.75100
O3          O  0.73425384  0.01182698  0.15968227    -0.75200
O4          O  0.73579946  0.99398944  0.20356397    -0.75200
O5          O  0.72490641  0.39728640  0.20153934    -0.75100
O6          O  0.72415510  0.42344175  0.15688545    -0.75100
O7          O  0.76826585  0.38645518  0.17812711    -0.75100
O8          O  0.68117709  0.91314411  0.17964010    -0.75200
Ni9        Ni  0.73526270  0.00551873  0.18168233     1.25400
Ni10       Ni  0.72402014  0.40555193  0.17905662     1.25400
C11         C  0.67045437  0.96842353  0.18150763     0.87100
C12         C  0.78979339  0.42852855  0.17899709     0.87000
C13         C  0.73094397  0.96383304  0.15114597     0.87100
C14         C  0.73242577  0.44366948  0.21024549     0.87200
O15         O  0.76742910  0.34602899  0.30319670    -0.75100
O16         O  0.67807487  0.39131753  0.30750445    -0.75100
O17         O  0.71994539  0.37938776  0.28347250    -0.75200
O18         O  0.72492544  0.35263269  0.32708262    -0.75200
O19         O  0.74014059  0.45097256  0.33065960    -0.75100
O20         O  0.73320181  0.47956271  0.28617737    -0.75100
O21         O  0.69321378  0.99816603  0.31016758    -0.75100
O22         O  0.78012486  0.44667700  0.30584699    -0.75200
Ni23       Ni  0.72205320  0.36376427  0.30520613     1.25400
Ni24       Ni  0.73710426  0.47031930  0.30856739     1.25400
C25         C  0.78833288  0.39019759  0.30363692     0.87100
C26         C  0.67131173  0.44901877  0.31011708     0.87000
C27         C  0.72567720  0.43303210  0.27750821     0.87100
C28         C  0.73407139  0.39589055  0.33614071     0.87200
O29         O  0.01957492  0.24532697  0.18062443    -0.75100
O30         O  0.92916702  0.28337269  0.17862709    -0.75100
O31         O  0.97514974  0.24567364  0.15804215    -0.75200
O32         O  0.97349672  0.27649001  0.20121186    -0.75200
O33         O  0.98484054  0.37727854  0.19741749    -0.75100
O34         O  0.98648015  0.34563087  0.15293056    -0.75100
O35         O  0.94164642  0.38309107  0.17411597    -0.75100
O36         O  0.02990641  0.34602611  0.17613993    -0.75200
Ni37       Ni  0.97383869  0.25922524  0.17974608     1.25400
Ni38       Ni  0.98605303  0.36664921  0.17495088     1.25400
C39         C  0.03961278  0.29054000  0.17879060     0.87100
C40         C  0.92072080  0.34065670  0.17646885     0.87000
C41         C  0.98193063  0.28906335  0.14836189     0.87100
C42         C  0.97918952  0.33062001  0.20659802     0.87200
O43         O  0.94395673  0.41281935  0.30261293    -0.75100
O44         O  0.03514573  0.38039127  0.30100888    -0.75100
O45         O  0.98749064  0.39075117  0.27993407    -0.75200
O46         O  0.99171916  0.40839532  0.32367650    -0.75200
O47         O  0.98155564  0.30736253  0.32727080    -0.75100
O48         O  0.97858022  0.28847506  0.28248843    -0.75100
O49         O  0.02453939  0.27914384  0.30431205    -0.75100
O50         O  0.93569462  0.31041871  0.30548118    -0.75200
Ni51       Ni  0.98997317  0.40172857  0.30172785     1.25400
Ni52       Ni  0.97985025  0.29272492  0.30501293     1.25400
C53         C  0.92495014  0.36589259  0.30442295     0.87100
C54         C  0.04460594  0.32329193  0.30216002     0.87000
C55         C  0.98249786  0.33746696  0.27388161     0.87100
C56         C  0.98657923  0.36222338  0.33283222     0.87200
O57         O  0.51214297  0.96928162  0.18417164    -0.75100
O58         O  0.42495701  0.02750296  0.18266886    -0.75100
O59         O  0.46777057  0.98270436  0.16183915    -0.75200
O60         O  0.46898861  0.01012193  0.20522260    -0.75200
O61         O  0.48703645  0.10685522  0.20168266    -0.75100
O62         O  0.48430506  0.08008741  0.15728535    -0.75100
O63         O  0.44306837  0.12466571  0.17906501    -0.75100
O64         O  0.52854442  0.06713323  0.17986337    -0.75200
Ni65       Ni  0.46778528  0.99400634  0.18361946     1.25400
Ni66       Ni  0.48629042  0.09823064  0.17930311     1.25400
C67         C  0.53465263  0.00952366  0.18226737     0.87100
C68         C  0.41994442  0.08631783  0.18077437     0.87000
C69         C  0.47571097  0.02599338  0.15232666     0.87100
C70         C  0.47868719  0.06183849  0.21082314     0.87200
O71         O  0.44757909  0.15570930  0.30544238    -0.75100
O72         O  0.53643558  0.10624106  0.30723864    -0.75100
O73         O  0.49281047  0.12209430  0.28442999    -0.75200
O74         O  0.49190534  0.14382636  0.32819290    -0.75200
O75         O  0.47687294  0.04489124  0.33179047    -0.75100
O76         O  0.47793404  0.02298998  0.28729894    -0.75100
O77         O  0.52061483  0.00733347  0.31038948    -0.75100
O78         O  0.43367785  0.05563310  0.30850066    -0.75200
Ni79       Ni  0.49271928  0.13558155  0.30623996     1.25400
Ni80       Ni  0.47678130  0.02923644  0.30965447     1.25400
C81         C  0.42611911  0.11270287  0.30636451     0.87100
C82         C  0.54282105  0.04775716  0.30879439     0.87000
C83         C  0.48541799  0.06952859  0.27848121     0.87100
C84         C  0.48449913  0.09859004  0.33729164     0.87200
O85         O  0.19785353  0.29561702  0.17859163    -0.75100
O86         O  0.28646862  0.24544634  0.17720770    -0.75100
O87         O  0.24256324  0.28147617  0.15600225    -0.75200
O88         O  0.24223751  0.26366107  0.19985771    -0.75200
O89         O  0.22801863  0.16352266  0.19799073    -0.75100
O90         O  0.22694949  0.18291772  0.15332927    -0.75100
O91         O  0.27060403  0.14664568  0.17462534    -0.75100
O92         O  0.18380799  0.19545793  0.17668971    -0.75200
Ni93       Ni  0.24284170  0.27511089  0.17798490     1.25400
Ni94       Ni  0.22683875  0.16859511  0.17555395     1.25400
C95         C  0.17627679  0.25290338  0.17801916     0.87100
C96         C  0.29288946  0.18707881  0.17557781     0.87000
C97         C  0.23477987  0.23594897  0.14729529     0.87100
C98         C  0.23480063  0.21157396  0.20623152     0.87200
O99         O  0.26917175  0.11699657  0.30266622    -0.75100
O100        O  0.18098523  0.17124510  0.29971471    -0.75100
O101        O  0.22945557  0.14988533  0.27926052    -0.75200
O102        O  0.22025139  0.13342949  0.32300390    -0.75200
O103        O  0.23622942  0.23135114  0.32635801    -0.75100
O104        O  0.24413644  0.24952254  0.28169945    -0.75100
O105        O  0.19725396  0.26934355  0.30289966    -0.75100
O106        O  0.28347275  0.21675467  0.30530193    -0.75200
Ni107      Ni  0.22436020  0.13936585  0.30105061     1.25400
Ni108      Ni  0.24077014  0.24524869  0.30415394     1.25400
C109        C  0.29075311  0.15900985  0.30470758     0.87100
C110        C  0.17478387  0.23002409  0.30080108     0.87000
C111        C  0.23832618  0.20166938  0.27319215     0.87100
C112        C  0.22724944  0.17836354  0.33206292     0.87200
O113        O  0.26877621  0.38001949  0.80287484    -0.75100
O114        O  0.18299373  0.44646548  0.80406804    -0.75100
O115        O  0.22664352  0.42251809  0.78146423    -0.75200
O116        O  0.22469365  0.40001603  0.82528764    -0.75200
O117        O  0.24470543  0.49553553  0.82875357    -0.75100
O118        O  0.24635909  0.51858745  0.78403753    -0.75100
O119        O  0.20344352  0.54203070  0.80694081    -0.75100
O120        O  0.28774562  0.47663091  0.80572810    -0.75200
Ni121      Ni  0.22501809  0.40891854  0.80332564     1.25400
Ni122      Ni  0.24617760  0.51171211  0.80650534     1.25400
C123        C  0.29237481  0.41807379  0.80417190     0.87100
C124        C  0.17941031  0.50583996  0.80540236     0.87000
C125        C  0.23711760  0.47327244  0.77539564     0.87100
C126        C  0.23506484  0.44261113  0.83424183     0.87200
O127        O  0.19967026  0.02067092  0.67991420    -0.75100
O128        O  0.29689012  0.51107035  0.68031369    -0.75100
O129        O  0.25533287  0.55035031  0.65803288    -0.75200
O130        O  0.25031244  0.53088291  0.70174386    -0.75200
O131        O  0.23452564  0.43193997  0.69937550    -0.75100
O132        O  0.23980885  0.45194528  0.65452271    -0.75100
O133        O  0.28033901  0.41280069  0.67744828    -0.75100
O134        O  0.19400635  0.46497537  0.67641577    -0.75200
Ni135      Ni  0.25335917  0.54265145  0.67994384     1.25400
Ni136      Ni  0.23673172  0.43682263  0.67682284     1.25400
C137        C  0.18665942  0.52252975  0.67740698     0.87100
C138        C  0.30283946  0.45215604  0.67937428     0.87000
C139        C  0.24787869  0.50589209  0.64897738     0.87100
C140        C  0.24131982  0.47934825  0.70789748     0.87200
O141        O  0.44798588  0.39656024  0.80570117    -0.75100
O142        O  0.53645487  0.34739444  0.80971610    -0.75100
O143        O  0.49554963  0.36491561  0.78578131    -0.75200
O144        O  0.48924023  0.38424109  0.82945345    -0.75200
O145        O  0.47551762  0.28407810  0.83251566    -0.75100
O146        O  0.47901942  0.26605625  0.78762351    -0.75100
O147        O  0.52061118  0.24845419  0.81145580    -0.75100
O148        O  0.43361174  0.29689652  0.80877704    -0.75200
Ni149      Ni  0.49287039  0.37673905  0.80758930     1.25400
Ni150      Ni  0.47670226  0.27022416  0.81019653     1.25400
C151        C  0.42624294  0.35409115  0.80656699     0.87100
C152        C  0.54308545  0.28892290  0.81102490     0.87000
C153        C  0.48810226  0.31341071  0.77937078     0.87100
C154        C  0.48132866  0.33839942  0.83819321     0.87200
O155        O  0.52613382  0.24180510  0.68505209    -0.75100
O156        O  0.43755206  0.29360454  0.68212819    -0.75100
O157        O  0.48381206  0.25692784  0.66190764    -0.75200
O158        O  0.47930946  0.27287319  0.70561205    -0.75200
O159        O  0.49555175  0.37199000  0.70405433    -0.75100
O160        O  0.49905436  0.35600986  0.65909966    -0.75100
O161        O  0.45415801  0.39229639  0.68020789    -0.75100
O162        O  0.54067565  0.34169271  0.68260576    -0.75200
Ni163      Ni  0.48110190  0.26284152  0.68377617     1.25400
Ni164      Ni  0.49783213  0.36912787  0.68144664     1.25400
C165        C  0.54796338  0.28415023  0.68399376     0.87100
C166        C  0.43153987  0.35230425  0.68045112     0.87000
C167        C  0.49259400  0.30233955  0.65319992     0.87100
C168        C  0.48665597  0.32406477  0.71216704     0.87200
O169        O  0.70490261  0.27467570  0.68530587    -0.75100
O170        O  0.79402082  0.22485991  0.68421020    -0.75100
O171        O  0.75111704  0.26914613  0.66319930    -0.75200
O172        O  0.74851998  0.23550772  0.70667036    -0.75200
O173        O  0.73359319  0.13714800  0.70239817    -0.75100
O174        O  0.73633273  0.17159230  0.65803102    -0.75100
O175        O  0.77811464  0.12725177  0.67961750    -0.75100
O176        O  0.69113029  0.17569266  0.68081920    -0.75200
Ni177      Ni  0.75018973  0.25457073  0.68501344     1.25400
Ni178      Ni  0.73432905  0.14946867  0.68002403     1.25400
C179        C  0.68344062  0.23240027  0.68320049     0.87100
C180        C  0.80035130  0.16672788  0.68197427     0.87000
C181        C  0.74428103  0.22693863  0.65336974     0.87100
C182        C  0.74038570  0.18164101  0.71182663     0.87200
O183        O  0.76224086  0.06142421  0.80539826    -0.75100
O184        O  0.67574925  0.12469336  0.80719129    -0.75100
O185        O  0.72034547  0.10742764  0.78430990    -0.75200
O186        O  0.71797250  0.07423244  0.82772553    -0.75200
O187        O  0.73635523  0.17010381  0.83245317    -0.75100
O188        O  0.73896271  0.20356062  0.78829720    -0.75100
O189        O  0.69499564  0.21996968  0.81155088    -0.75100
O190        O  0.77954770  0.15832038  0.80964588    -0.75200
Ni191      Ni  0.71820961  0.08866779  0.80593561     1.25400
Ni192      Ni  0.73793240  0.19152920  0.81061098     1.25400
C193        C  0.78506395  0.10024231  0.80789847     0.87100
C194        C  0.67125887  0.18306815  0.81001198     0.87000
C195        C  0.73112803  0.15933482  0.77902326     0.87100
C196        C  0.72803993  0.11528978  0.83718204     0.87200
O197        O  0.02348662  0.95731868  0.68105022    -0.75100
O198        O  0.93448824  0.00723591  0.67914667    -0.75100
O199        O  0.98074953  0.97827643  0.65823343    -0.75200
O200        O  0.97671351  0.98079624  0.70202240    -0.75200
O201        O  0.99048982  0.08144206  0.70212291    -0.75100
O202        O  0.99680175  0.07720229  0.65716567    -0.75100
O203        O  0.95041454  0.10658795  0.67817189    -0.75100
O204        O  0.03695249  0.05820065  0.68116018    -0.75200
Ni205      Ni  0.97827014  0.97737422  0.68011099     1.25400
Ni206      Ni  0.99409274  0.08450468  0.67963457     1.25400
C207        C  0.04476197  0.00074699  0.68165473     0.87100
C208        C  0.92809702  0.06602149  0.67821713     0.87000
C209        C  0.98999351  0.02562390  0.65031860     0.87100
C210        C  0.98345882  0.03036281  0.70940672     0.87200
O211        O  0.93843545  0.09260804  0.80532351    -0.75100
O212        O  0.02892650  0.06244151  0.80452880    -0.75100
O213        O  0.98258506  0.07368376  0.78305504    -0.75200
O214        O  0.98471865  0.08534674  0.82693988    -0.75200
O215        O  0.97558938  0.98306744  0.82942542    -0.75100
O216        O  0.97344066  0.97118890  0.78448984    -0.75100
O217        O  0.01922289  0.96016267  0.80666541    -0.75100
O218        O  0.92966281  0.98990110  0.80715448    -0.75200
Ni219      Ni  0.98402383  0.08204542  0.80490756     1.25400
Ni220      Ni  0.97420383  0.97227559  0.80702247     1.25400
C221        C  0.91924866  0.04579264  0.80611279     0.87100
C222        C  0.03882317  0.00580154  0.80555643     0.87000
C223        C  0.97697569  0.02172971  0.77644727     0.87100
C224        C  0.98015108  0.03716404  0.83549679     0.87200
O225        O  0.70142728  0.24453201  0.55706797    -0.75100
O226        O  0.79165684  0.28669141  0.55755868    -0.75100
O227        O  0.74660116  0.25209219  0.57918807    -0.75200
O228        O  0.74665026  0.27282941  0.53538902    -0.75200
O229        O  0.73331467  0.37319841  0.53752687    -0.75100
O230        O  0.73508974  0.35286663  0.58251324    -0.75100
O231        O  0.77796365  0.38698006  0.55985336    -0.75100
O232        O  0.69033983  0.34545037  0.56003311    -0.75200
Ni233      Ni  0.74711390  0.26045964  0.55722238     1.25400
Ni234      Ni  0.73382906  0.36822146  0.56012187     1.25400
C235        C  0.68104431  0.28915620  0.55870752     0.87100
C236        C  0.79923663  0.34496007  0.55829229     0.87000
C237        C  0.74014079  0.29769247  0.58811393     0.87100
C238        C  0.73988864  0.32526248  0.52910750     0.87200
O239        O  0.76509981  0.40714192  0.43445459    -0.75100
O240        O  0.67797400  0.34888667  0.43261342    -0.75100
O241        O  0.72038827  0.37143093  0.45553090    -0.75200
O242        O  0.72211293  0.38911701  0.41162373    -0.75200
O243        O  0.74073365  0.29253349  0.40891711    -0.75100
O244        O  0.73674287  0.27264761  0.45385205    -0.75100
O245        O  0.69585462  0.25150617  0.42992639    -0.75100
O246        O  0.78137113  0.30804789  0.43292388    -0.75200
Ni247      Ni  0.72069868  0.38251092  0.43362080     1.25400
Ni248      Ni  0.73916502  0.27752962  0.43129752     1.25400
C249        C  0.78749947  0.36611194  0.43418893     0.87100
C250        C  0.67273834  0.29009995  0.43092286     0.87000
C251        C  0.72839515  0.32013563  0.46205926     0.87100
C252        C  0.73290933  0.34583196  0.40295735     0.87200
O253        O  0.94294205  0.36754168  0.43080725    -0.75100
O254        O  0.03253135  0.41336491  0.42929719    -0.75100
O255        O  0.98757040  0.39812275  0.45199126    -0.75200
O256        O  0.98815121  0.37726899  0.40823366    -0.75200
O257        O  0.97457767  0.47656359  0.40454912    -0.75100
O258        O  0.97440639  0.49852521  0.44927470    -0.75100
O259        O  0.01784479  0.51264801  0.42597344    -0.75100
O260        O  0.93063810  0.46817065  0.42763923    -0.75200
Ni261      Ni  0.98834410  0.38550141  0.43019112     1.25400
Ni262      Ni  0.97393724  0.49252875  0.42675379     1.25400
C263        C  0.92212500  0.41139793  0.42933638     0.87100
C264        C  0.03961490  0.47141313  0.42717338     0.87000
C265        C  0.98040196  0.45068778  0.45795342     0.87100
C266        C  0.98124852  0.42229185  0.39903715     0.87200
O267        O  0.01984953  0.56052035  0.55013561    -0.75100
O268        O  0.93191769  0.50664088  0.55398259    -0.75100
O269        O  0.97704029  0.55243862  0.57361902    -0.75200
O270        O  0.97486179  0.52003377  0.53031419    -0.75200
O271        O  0.98995537  0.42127632  0.53423557    -0.75100
O272        O  0.99424139  0.45589225  0.57837480    -0.75100
O273        O  0.94909208  0.40995048  0.55891660    -0.75100
O274        O  0.03499145  0.46166550  0.55395944    -0.75200
Ni275      Ni  0.97518428  0.53831347  0.55185709     1.25400
Ni276      Ni  0.99250976  0.43363831  0.55654008     1.25400
C277        C  0.04182446  0.51890077  0.55147309     0.87100
C278        C  0.92629649  0.44882120  0.55724012     0.87000
C279        C  0.98690237  0.51094801  0.58318129     0.87100
C280        C  0.98298372  0.46681532  0.52500545     0.87200
O281        O  0.26787830  0.16388980  0.42962814    -0.75100
O282        O  0.17721033  0.12876400  0.42935676    -0.75100
O283        O  0.22325980  0.13546746  0.45130672    -0.75200
O284        O  0.22171132  0.16211175  0.40764706    -0.75200
O285        O  0.23160705  0.06136406  0.40350902    -0.75100
O286        O  0.23450453  0.03461321  0.44809817    -0.75100
O287        O  0.18871463  0.02792326  0.42604076    -0.75100
O288        O  0.27735305  0.06272431  0.42563935    -0.75200
Ni289      Ni  0.22209949  0.15116940  0.42957853     1.25400
Ni290      Ni  0.23333039  0.04306312  0.42563966     1.25400
C291        C  0.28744945  0.11811654  0.42785846     0.87100
C292        C  0.16836397  0.07146410  0.42805622     0.87000
C293        C  0.22981266  0.08180151  0.45702206     0.87100
C294        C  0.22635596  0.11697584  0.39828653     0.87200
O295        O  0.20248898  0.99211066  0.55128920    -0.75100
O296        O  0.29181350  0.03636231  0.55336344    -0.75100
O297        O  0.24607867  0.00018929  0.57419267    -0.75200
O298        O  0.24796745  0.02392299  0.53034291    -0.75200
O299        O  0.23326853  0.12320949  0.53303677    -0.75100
O300        O  0.23452456  0.10089339  0.57770991    -0.75100
O301        O  0.27767687  0.13646439  0.55559623    -0.75100
O302        O  0.19026240  0.09219127  0.55504702    -0.75200
Ni303      Ni  0.24768796  0.00959671  0.55219805     1.25400
Ni304      Ni  0.23356702  0.11679131  0.55547796     1.25400
C305        C  0.18167848  0.03578005  0.55280409     0.87100
C306        C  0.29915713  0.09447689  0.55458576     0.87000
C307        C  0.23963148  0.04570138  0.58318679     0.87100
C308        C  0.23972438  0.07621452  0.52433873     0.87200
O309        O  0.52431971  0.28957424  0.55558604    -0.75100
O310        O  0.43490616  0.24528614  0.55780627    -0.75100
O311        O  0.48003944  0.28132363  0.57850572    -0.75200
O312        O  0.47893479  0.25820803  0.53491271    -0.75200
O313        O  0.49112112  0.15743741  0.53786863    -0.75100
O314        O  0.49452223  0.18260390  0.58231674    -0.75100
O315        O  0.44901052  0.14603482  0.56180519    -0.75100
O316        O  0.53656140  0.18879065  0.55848282    -0.75200
Ni317      Ni  0.47900407  0.27214717  0.55661658     1.25400
Ni318      Ni  0.49317297  0.16509491  0.56026393     1.25400
C319        C  0.54509230  0.24541785  0.55641147     0.87100
C320        C  0.42747877  0.18759575  0.56010089     0.87000
C321        C  0.48825646  0.23719563  0.58770571     0.87100
C322        C  0.48528384  0.20499169  0.52909486     0.87200
O323        O  0.44430715  0.10331518  0.43437815    -0.75100
O324        O  0.53461702  0.14120642  0.43477226    -0.75100
O325        O  0.48750683  0.13179710  0.45654958    -0.75200
O326        O  0.49121813  0.10898197  0.41275074    -0.75200
O327        O  0.48039335  0.20945842  0.40893082    -0.75100
O328        O  0.47658643  0.23297618  0.45330758    -0.75100
O329        O  0.52260392  0.24184108  0.43127339    -0.75100
O330        O  0.43435950  0.20448970  0.43087776    -0.75200
Ni331      Ni  0.48989191  0.11768390  0.43475225     1.25400
Ni332      Ni  0.47817428  0.22572313  0.43096269     1.25400
C333        C  0.42444816  0.14836097  0.43236308     0.87100
C334        C  0.54316735  0.19870740  0.43333424     0.87000
C335        C  0.48100407  0.18535156  0.46221779     0.87100
C336        C  0.48564194  0.15463101  0.40349433     0.87200
O337        O  0.26731723  0.40423044  0.92945938    -0.75100
O338        O  0.18044928  0.34036491  0.92748084    -0.75100
O339        O  0.22403096  0.35900839  0.94997814    -0.75200
O340        O  0.22282520  0.39160792  0.90683685    -0.75200
O341        O  0.24297558  0.29726817  0.90188952    -0.75100
O342        O  0.24202418  0.26224770  0.94626010    -0.75100
O343        O  0.20003745  0.24604674  0.92258294    -0.75100
O344        O  0.28509593  0.30738324  0.92557164    -0.75200
Ni345      Ni  0.22295721  0.37715379  0.92854283     1.25400
Ni346      Ni  0.24313169  0.27474259  0.92385914     1.25400
C347        C  0.29049943  0.36500032  0.92816355     0.87100
C348        C  0.17603692  0.28170828  0.92496365     0.87000
C349        C  0.23282431  0.30627878  0.95537705     0.87100
C350        C  0.23312388  0.35125349  0.89724329     0.87200
O351        O  0.20248444  0.22169177  0.05013624    -0.75100
O352        O  0.28998271  0.27982268  0.05201540    -0.75100
O353        O  0.24510784  0.24180306  0.07282468    -0.75200
O354        O  0.24808165  0.25510928  0.02900874    -0.75200
O355        O  0.23052216  0.35335465  0.02997755    -0.75100
O356        O  0.22827896  0.34036922  0.07479457    -0.75100
O357        O  0.27193643  0.37781278  0.05312009    -0.75100
O358        O  0.18615827  0.32082492  0.05149071    -0.75200
Ni359      Ni  0.24706202  0.24614188  0.05092144     1.25400
Ni360      Ni  0.22863540  0.35166439  0.05241064     1.25400
C361        C  0.17999564  0.26259660  0.05061240     0.87100
C362        C  0.29504546  0.33903729  0.05274319     0.87000
C363        C  0.23615754  0.28785182  0.08107422     0.87100
C364        C  0.23989095  0.30560034  0.02217995     0.87200
O365        O  0.78528288  0.07473640  0.93332534    -0.75100
O366        O  0.69372615  0.05071984  0.93157483    -0.75100
O367        O  0.73833945  0.04965582  0.95389312    -0.75200
O368        O  0.74017835  0.08091244  0.91083228    -0.75200
O369        O  0.74682619  0.97980148  0.90577586    -0.75100
O370        O  0.74642925  0.94782686  0.95021709    -0.75100
O371        O  0.70205603  0.94931603  0.92739571    -0.75100
O372        O  0.79212450  0.97343319  0.92846657    -0.75200
Ni373      Ni  0.73919649  0.06755787  0.93250963     1.25400
Ni374      Ni  0.74721111  0.95888124  0.92778465     1.25400
C375        C  0.80368868  0.02723918  0.93144401     0.87100
C376        C  0.68298314  0.99519480  0.92927476     0.87000
C377        C  0.74188694  0.99460915  0.95929799     0.87100
C378        C  0.74287153  0.03657671  0.90110690     0.87200
O379        O  0.70305236  0.93495661  0.05602925    -0.75100
O380        O  0.79403389  0.97162654  0.05511703    -0.75100
O381        O  0.74936990  0.95121772  0.07761514    -0.75200
O382        O  0.74804754  0.95046440  0.03366293    -0.75200
O383        O  0.73665639  0.05220876  0.03318422    -0.75100
O384        O  0.73895269  0.05330466  0.07802210    -0.75100
O385        O  0.78211850  0.07322699  0.05466206    -0.75100
O386        O  0.69348947  0.03705321  0.05619744    -0.75200
Ni387      Ni  0.74906250  0.94841691  0.05564452     1.25400
Ni388      Ni  0.73750055  0.05757831  0.05554753     1.25400
C389        C  0.68319221  0.98089348  0.05599182     0.87100
C390        C  0.80271231  0.02934258  0.05442945     0.87000
C391        C  0.74442625  0.00139403  0.08515132     0.87100
C392        C  0.74150788  0.00027766  0.02612660     0.87200
O393        O  0.44750150  0.36870685  0.93373917    -0.75100
O394        O  0.53782077  0.41426624  0.93281976    -0.75100
O395        O  0.49166449  0.40300268  0.95495468    -0.75200
O396        O  0.49419270  0.37321576  0.91179555    -0.75200
O397        O  0.48087093  0.47192378  0.90659432    -0.75100
O398        O  0.47795826  0.50246752  0.95111768    -0.75100
O399        O  0.52314851  0.51298430  0.92848602    -0.75100
O400        O  0.43549767  0.46845503  0.92908427    -0.75200
Ni401      Ni  0.49330787  0.38629550  0.93346677     1.25400
Ni402      Ni  0.47898924  0.49252949  0.92862967     1.25400
C403        C  0.42665310  0.41223748  0.93152642     0.87100
C404        C  0.54493047  0.47247473  0.93084187     0.87000
C405        C  0.48421810  0.45635427  0.96033635     0.87100
C406        C  0.48776200  0.41622405  0.90201686     0.87200
O407        O  0.52553779  0.00889926  0.05558817    -0.75100
O408        O  0.42856508  0.50109345  0.05605290    -0.75100
O409        O  0.47280053  0.53904328  0.07724776    -0.75200
O410        O  0.47349394  0.51623419  0.03360403    -0.75200
O411        O  0.48779985  0.41658307  0.03651196    -0.75100
O412        O  0.48618329  0.43932497  0.08121498    -0.75100
O413        O  0.44351024  0.40195388  0.05946581    -0.75100
O414        O  0.53074141  0.44831165  0.05847822    -0.75200
Ni415      Ni  0.47260007  0.52972114  0.05531947     1.25400
Ni416      Ni  0.48747870  0.42292405  0.05903752     1.25400
C417        C  0.53889117  0.50518654  0.05649336     0.87100
C418        C  0.42162387  0.44286395  0.05791425     0.87000
C419        C  0.48003958  0.49430770  0.08643672     0.87100
C420        C  0.48121926  0.46382445  0.02772655     0.87200
O421        O  0.96363750  0.02594442  0.93414525    -0.75100
O422        O  0.04917210  0.09582431  0.93037197    -0.75100
O423        O  0.00755026  0.07125452  0.95423857    -0.75200
O424        O  0.00553622  0.04567738  0.91057891    -0.75200
O425        O  0.98464407  0.13988198  0.90681247    -0.75100
O426        O  0.98745264  0.16702791  0.95122431    -0.75100
O427        O  0.02753618  0.18995646  0.92695057    -0.75100
O428        O  0.94399202  0.12202853  0.93098466    -0.75200
Ni429      Ni  0.00731147  0.05635993  0.93245555     1.25400
Ni430      Ni  0.98524321  0.15811287  0.92886547     1.25400
C431        C  0.93975537  0.06352332  0.93304420     0.87100
C432        C  0.05218519  0.15514124  0.92803060     0.87000
C433        C  0.99774963  0.12260224  0.96002307     0.87100
C434        C  0.99424396  0.08704523  0.90141442     0.87200
O435        O  0.02327477  0.24906180  0.05231296    -0.75100
O436        O  0.93557178  0.18982958  0.05286139    -0.75100
O437        O  0.97571956  0.24269084  0.07388060    -0.75200
O438        O  0.98263431  0.20179501  0.03121924    -0.75200
O439        O  0.99930819  0.10568296  0.03713672    -0.75100
O440        O  0.99232952  0.14801643  0.08092125    -0.75100
O441        O  0.95326949  0.09516723  0.05946341    -0.75100
O442        O  0.03891924  0.15294947  0.05892585    -0.75200
Ni443      Ni  0.97863347  0.22420310  0.05237507     1.25400
Ni444      Ni  0.99650555  0.12202159  0.05935074     1.25400
C445        C  0.04551377  0.20963339  0.05556283     0.87100
C446        C  0.93025663  0.13198278  0.05627746     0.87000
C447        C  0.98285722  0.20344026  0.08451439     0.87100
C448        C  0.99227003  0.14800958  0.02698654     0.87200
C449        C  0.99801217  0.12895430  0.97715879    -0.06800
C450        C  0.98728377  0.07830351  0.98635681    -0.17900
C451        C  0.98560721  0.08217629  0.00261849     0.10400
C452        C  0.99548215  0.13755064  0.01001387    -0.06700
C453        C  0.00704923  0.18746739  0.00078659    -0.17900
C454        C  0.00885333  0.18345462  0.98457396     0.10500
S455        S  0.96884738  0.01657934  0.01310968    -0.32900
S456        S  0.02668446  0.24805791  0.97408718    -0.32900
H457        H  0.04233230  0.21068705  0.96301995     0.28500
H458        H  0.95066572  0.05304489  0.02343848     0.28500
H459        H  0.97902227  0.03603941  0.98078379     0.19100
H460        H  0.01518133  0.22997639  0.00629610     0.19100
C461        C  0.48353698  0.46204157  0.97751598    -0.06800
C462        C  0.50534418  0.42554498  0.98608583    -0.17900
C463        C  0.50518348  0.42457797  0.00234663     0.10400
C464        C  0.48231335  0.46018816  0.01050697    -0.06700
C465        C  0.46067933  0.49718387  0.00194846    -0.17900
C466        C  0.46075546  0.49789373  0.98565890     0.10500
S467        S  0.53575329  0.37937995  0.01187243    -0.32900
S468        S  0.43002976  0.54236209  0.97605902    -0.32900
H469        H  0.42300653  0.49574520  0.96514298     0.28500
H470        H  0.54284865  0.42548191  0.02290522     0.28500
H471        H  0.52312644  0.39787410  0.98002942     0.19100
H472        H  0.44291448  0.52483669  0.00802200     0.19100
C473        C  0.64771565  0.97203896  0.05552464    -0.06800
C474        C  0.62889511  0.02491445  0.05201469    -0.17900
C475        C  0.59549851  0.02338841  0.05254122     0.10400
C476        C  0.57949818  0.96721041  0.05656655    -0.06700
C477        C  0.59827103  0.91369264  0.05963669    -0.17900
C478        C  0.63181899  0.91521991  0.05896056     0.10500
S479        S  0.57525425  0.09517544  0.04775590    -0.32900
S480        S  0.65259193  0.84317188  0.06276261    -0.32900
H481        H  0.66834738  0.84395754  0.04825826     0.28500
H482        H  0.54767120  0.60685073  0.03429713     0.28500
H483        H  0.64024321  0.06881723  0.04893316     0.19100
H484        H  0.58681987  0.86969926  0.06251929     0.19100
C485        C  0.89746730  0.10547005  0.05615019    -0.06800
C486        C  0.87723451  0.12072306  0.04377626    -0.17900
C487        C  0.84733015  0.09191549  0.04222857     0.10400
C488        C  0.83671593  0.04792509  0.05349454    -0.06700
C489        C  0.85718536  0.03128674  0.06563742    -0.17900
C490        C  0.88722317  0.05977503  0.06716044     0.10500
S491        S  0.82395416  0.11202126  0.02538111    -0.32900
S492        S  0.91040780  0.03847749  0.08398071    -0.32900
H493        H  0.92296394  0.09869169  0.08633113     0.28500
H494        H  0.80864518  0.05365088  0.02428392     0.28500
H495        H  0.88516319  0.15383393  0.03498244     0.19100
H496        H  0.84899039  0.99866788  0.07450154     0.19100
C497        C  0.83885923  0.03330518  0.93265563    -0.06800
C498        C  0.85826373  0.00443630  0.92139575    -0.17900
C499        C  0.89171781  0.00855502  0.92195537     0.10400
C500        C  0.90632319  0.04173610  0.93412393    -0.06700
C501        C  0.88697028  0.06777852  0.94579240    -0.17900
C502        C  0.85358325  0.06381248  0.94520621     0.10500
S503        S  0.91428310  0.97603646  0.90605384    -0.32900
S504        S  0.83095779  0.09644556  0.96103194    -0.32900
H505        H  0.81726590  0.14317615  0.95162896     0.28500
H506        H  0.93884746  0.95201674  0.91539674     0.28500
H507        H  0.84724341  0.97992465  0.91183500     0.19100
H508        H  0.89796569  0.09376170  0.95512287     0.19100
C509        C  0.57825597  0.49615661  0.93160965    -0.06800
C510        C  0.60263481  0.91838408  0.92162386    -0.17900
C511        C  0.63457185  0.93653176  0.91949747     0.10400
C512        C  0.64821104  0.98206944  0.92934502    -0.06700
C513        C  0.62893583  0.00987198  0.94073650    -0.17900
C514        C  0.59687263  0.99237433  0.94269601     0.10500
S515        S  0.65598049  0.90279094  0.90334324    -0.32900
S516        S  0.55981892  0.56894975  0.95741450    -0.32900
H517        H  0.54774377  0.50864673  0.96036812     0.28500
H518        H  0.67401584  0.95678387  0.89989845     0.28500
H519        H  0.59230127  0.88460773  0.91380345     0.19100
H520        H  0.63920630  0.04387175  0.94854613     0.19100
C521        C  0.74008147  0.98819001  0.97634388    -0.06800
C522        C  0.71828654  0.02725064  0.98414258    -0.17900
C523        C  0.71767890  0.03127594  0.00029873     0.10400
C524        C  0.73978185  0.99629423  0.00905343    -0.06700
C525        C  0.76056126  0.95484626  0.00133401    -0.17900
C526        C  0.76118499  0.95091227  0.98510274     0.10500
S527        S  0.68740489  0.08015765  0.00894728    -0.32900
S528        S  0.79077812  0.90096598  0.97634285    -0.32900
H529        H  0.80031006  0.94488173  0.96497536     0.28500
H530        H  0.68022554  0.03824410  0.02115803     0.28500
H531        H  0.70155894  0.05533281  0.97754678     0.19100
H532        H  0.77737322  0.92711683  0.00795567     0.19100
C533        C  0.14612254  0.24399415  0.05077667    -0.06800
C534        C  0.13433927  0.21213038  0.06386143    -0.17900
C535        C  0.10144942  0.20434464  0.06622569     0.10400
C536        C  0.07963178  0.22737969  0.05503848    -0.06700
C537        C  0.09146339  0.25947371  0.04196163    -0.17900
C538        C  0.12440046  0.26772923  0.03969326     0.10500
S539        S  0.08876037  0.16739670  0.08414986    -0.32900
S540        S  0.13743489  0.30733943  0.02221736    -0.32900
H541        H  0.16651112  0.27480974  0.02088909     0.28500
H542        H  0.06034456  0.20202084  0.08566547     0.28500
H543        H  0.15081737  0.19599544  0.07271460     0.19100
H544        H  0.07503945  0.27600633  0.03313928     0.19100
C545        C  0.38819460  0.42047067  0.05772673    -0.06800
C546        C  0.36803397  0.44114519  0.04580708    -0.17900
C547        C  0.33789952  0.41365588  0.04361346     0.10400
C548        C  0.32775751  0.36440045  0.05352247    -0.06700
C549        C  0.34780549  0.34387925  0.06545073    -0.17900
C550        C  0.37758592  0.37192905  0.06780738     0.10500
S551        S  0.31319761  0.43941604  0.02764722    -0.32900
S552        S  0.40035523  0.34534751  0.08429737    -0.32900
H553        H  0.41430269  0.40385623  0.08722740     0.28500
H554        H  0.33476796  0.48363826  0.02144367     0.28500
H555        H  0.37641834  0.47717801  0.03789263     0.19100
H556        H  0.33968895  0.30748966  0.07335151     0.19100
C557        C  0.32433881  0.38353228  0.93011262    -0.06800
C558        C  0.34321801  0.34726064  0.94022063    -0.17900
C559        C  0.37640542  0.35569622  0.94118046     0.10400
C560        C  0.39163941  0.39989239  0.93137791    -0.06700
C561        C  0.37259231  0.43656911  0.92136926    -0.17900
C562        C  0.33932460  0.42926375  0.92072870     0.10500
S563        S  0.39759156  0.31022558  0.95547451    -0.32900
S564        S  0.31775085  0.47539162  0.90671588    -0.32900
H565        H  0.29472757  0.49593584  0.91747721     0.28500
H566        H  0.41741311  0.35974369  0.96015556     0.28500
H567        H  0.33191346  0.31188302  0.94747944     0.19100
H568        H  0.38377768  0.47089030  0.91376569     0.19100
C569        C  0.14334636  0.25245837  0.92501902    -0.06800
C570        C  0.13974882  0.19240194  0.91847536    -0.17900
C571        C  0.11050570  0.15993428  0.91898189     0.10400
C572        C  0.08407252  0.18611935  0.92683203    -0.06700
C573        C  0.08742345  0.24616755  0.93320323    -0.17900
C574        C  0.11622310  0.27969331  0.93220537     0.10500
S575        S  0.10799238  0.08739236  0.90854197    -0.32900
S576        S  0.11656650  0.35618897  0.94072551    -0.32900
H577        H  0.12498889  0.38586469  0.92663719     0.28500
H578        H  0.07685113  0.09758342  0.90299259     0.28500
H579        H  0.15977850  0.17069694  0.91259460     0.19100
H580        H  0.06722719  0.26759887  0.93902780     0.19100
C581        C  0.23280966  0.29924040  0.97246587    -0.06800
C582        C  0.25895136  0.27095316  0.97978629    -0.17900
C583        C  0.26251953  0.27384577  0.99599933     0.10400
C584        C  0.23962090  0.30654097  0.00503032    -0.06700
C585        C  0.21372130  0.33493435  0.99765681    -0.17900
C586        C  0.20953035  0.32999256  0.98167177     0.10500
S587        S  0.29748801  0.23940292  0.00483409    -0.32900
S588        S  0.17307045  0.36169427  0.97383946    -0.32900
H589        H  0.16988760  0.31531134  0.96244709     0.28500
H590        H  0.30858414  0.20794501  0.99155981     0.28500
H591        H  0.27723766  0.24896019  0.97273392     0.19100
H592        H  0.19571017  0.35883750  0.00449971     0.19100
C593        C  0.48539112  0.19961118  0.51197945    -0.06800
C594        C  0.47119744  0.14722353  0.50521049    -0.17900
C595        C  0.46771722  0.14317167  0.48908146     0.10400
C596        C  0.47956923  0.19166809  0.47932331    -0.06700
C597        C  0.49312530  0.24465247  0.48612016    -0.17900
C598        C  0.49669364  0.24870649  0.50222675     0.10500
S599        S  0.44612295  0.07673649  0.48177226    -0.32900
S600        S  0.51753129  0.31631765  0.50945437    -0.32900
H601        H  0.53369284  0.28365547  0.52126567     0.28500
H602        H  0.43119409  0.11017058  0.46969782     0.28500
H603        H  0.46159096  0.11031061  0.51256206     0.19100
H604        H  0.50227680  0.28209766  0.47881815     0.19100
C605        C  0.33265862  0.11509187  0.55510250    -0.06800
C606        C  0.35237118  0.09141175  0.56682207    -0.17900
C607        C  0.38259762  0.11722837  0.56945432     0.10400
C608        C  0.39384936  0.16680901  0.55986499    -0.06700
C609        C  0.37396279  0.19062945  0.54821167    -0.17900
C610        C  0.34370260  0.16508714  0.54565655     0.10500
S611        S  0.40492118  0.08696266  0.58571755    -0.32900
S612        S  0.32071771  0.19688521  0.52979293    -0.32900
H613        H  0.30515355  0.14060652  0.52615139     0.28500
H614        H  0.41991502  0.14398330  0.58925357     0.28500
H615        H  0.34356548  0.05456583  0.57444734     0.19100
H616        H  0.38259655  0.22757648  0.54057383     0.19100
C617        C  0.32232445  0.12708040  0.42879373    -0.06800
C618        C  0.34054835  0.07947423  0.43580852    -0.17900
C619        C  0.37375075  0.08405509  0.43706768     0.10400
C620        C  0.38950114  0.13777660  0.43121581    -0.06700
C621        C  0.37110137  0.18509875  0.42408348    -0.17900
C622        C  0.33799506  0.18003044  0.42265313     0.10500
S623        S  0.39408567  0.02106893  0.44681777    -0.32900
S624        S  0.31755867  0.24095959  0.41210175    -0.32900
H625        H  0.29700317  0.20013144  0.40419140     0.28500
H626        H  0.41122101  0.00398347  0.43338521     0.28500
H627        H  0.32883821  0.03806543  0.44038834     0.19100
H628        H  0.38261734  0.22619892  0.41920076     0.19100
C629        C  0.23199824  0.07668989  0.47421475    -0.06800
C630        C  0.21212016  0.11545642  0.48320949    -0.17900
C631        C  0.21459813  0.11783121  0.49941128     0.10400
C632        C  0.23738061  0.08021013  0.50711131    -0.06700
C633        C  0.25681299  0.04043244  0.49813205    -0.17900
C634        C  0.25467372  0.03880894  0.48189286     0.10500
S635        S  0.18654458  0.16661704  0.50959424    -0.32900
S636        S  0.28273632  0.99005822  0.47169307    -0.32900
H637        H  0.29043350  0.03650409  0.46067237     0.28500
H638        H  0.21061124  0.20658813  0.51510234     0.28500
H639        H  0.19440420  0.14450482  0.47754815     0.19100
H640        H  0.27435181  0.01100027  0.50379407     0.19100
C641        C  0.07591505  0.53505307  0.55058395    -0.06800
C642        C  0.09994671  0.96813041  0.54331889    -0.17900
C643        C  0.13332564  0.97495983  0.54340546     0.10400
C644        C  0.14701091  0.02306381  0.55233279    -0.06700
C645        C  0.12692017  0.06343278  0.56072864    -0.17900
C646        C  0.08896594  0.58463859  0.55910402     0.10500
S647        S  0.15770375  0.92415040  0.53154307    -0.32900
S648        S  0.06490279  0.63763872  0.57037809    -0.32900
H649        H  0.04602606  0.59010242  0.57709654     0.28500
H650        H  0.13262519  0.88829268  0.52542106     0.28500
H651        H  0.08618922  0.45625664  0.53600229     0.19100
H652        H  0.13709137  0.10019068  0.56775384     0.19100
C653        C  0.07306578  0.49342476  0.42647152    -0.06800
C654        C  0.09319763  0.98004466  0.43760001    -0.17900
C655        C  0.12441141  0.00300516  0.43865877     0.10400
C656        C  0.13441911  0.05329216  0.42901442    -0.06700
C657        C  0.11264111  0.08010683  0.41866380    -0.17900
C658        C  0.08145313  0.05674009  0.41747512     0.10500
S659        S  0.15017811  0.96731879  0.45290387    -0.32900
S660        S  0.05654480  0.09022679  0.40254259    -0.32900
H661        H  0.04351957  0.51400287  0.39769864     0.28500
H662        H  0.16628929  0.02288964  0.45662916     0.28500
H663        H  0.08777684  0.43348075  0.44532994     0.19100
H664        H  0.12045500  0.11728005  0.41089204     0.19100
C665        C  0.97963862  0.45496797  0.47513366    -0.06800
C666        C  0.99502369  0.50523368  0.48222742    -0.17900
C667        C  0.99818905  0.50766399  0.49839180     0.10400
C668        C  0.98460006  0.46008329  0.50790892    -0.06700
C669        C  0.96954845  0.40933675  0.50084558    -0.17900
C670        C  0.96674812  0.40645289  0.48463724     0.10500
S671        S  0.02325687  0.07365881  0.50708740    -0.32900
S672        S  0.94484108  0.34136776  0.47686195    -0.32900
H673        H  0.93061706  0.37702567  0.46502422     0.28500
H674        H  0.03629689  0.03292473  0.51826888     0.28500
H675        H  0.00589275  0.54153403  0.47509827     0.19100
H676        H  0.95871604  0.37309447  0.50800302     0.19100
C677        C  0.82128435  0.38420047  0.43468711    -0.06800
C678        C  0.83282124  0.42559893  0.42334164    -0.17900
C679        C  0.86563289  0.43259646  0.42078078     0.10400
C680        C  0.88757573  0.39841085  0.43001776    -0.06700
C681        C  0.87591562  0.35753596  0.44149736    -0.17900
C682        C  0.84310304  0.35114794  0.44413406     0.10500
S683        S  0.87778436  0.48275351  0.40485463    -0.32900
S684        S  0.83037600  0.30188116  0.46008515    -0.32900
H685        H  0.80284003  0.33712926  0.46341379     0.28500
H686        H  0.90426149  0.44621437  0.40048207     0.28500
H687        H  0.81620664  0.44973710  0.41578810     0.19100
H688        H  0.89238474  0.33198151  0.44880723     0.19100
C689        C  0.63964166  0.26572480  0.43092367    -0.06800
C690        C  0.61707998  0.29546794  0.44039960    -0.17900
C691        C  0.58622452  0.27170321  0.44217939     0.10400
C692        C  0.57700339  0.21758138  0.43399601    -0.06700
C693        C  0.59954658  0.18698828  0.42468147    -0.17900
C694        C  0.63061376  0.21074103  0.42290358     0.10500
S695        S  0.56001932  0.31128102  0.45558404    -0.32900
S696        S  0.65671942  0.17084513  0.40949494    -0.32900
H697        H  0.67074287  0.22579065  0.40346488     0.28500
H698        H  0.54508449  0.25608127  0.46083306     0.28500
H699        H  0.62381943  0.33655105  0.44692726     0.19100
H700        H  0.59244326  0.14624599  0.41811087     0.19100
C701        C  0.64615494  0.27728620  0.55872762    -0.06800
C702        C  0.63439950  0.22599361  0.55049704    -0.17900
C703        C  0.60153640  0.21666339  0.54873009     0.10400
C704        C  0.57960749  0.25882948  0.55560225    -0.06700
C705        C  0.59123338  0.31036200  0.56368735    -0.17900
C706        C  0.62401980  0.31948246  0.56560406     0.10500
S707        S  0.58924065  0.15135883  0.53703574    -0.32900
S708        S  0.63545493  0.38401610  0.57777184    -0.32900
H709        H  0.65963232  0.35080143  0.58553778     0.28500
H710        H  0.56241141  0.18155701  0.53069272     0.28500
H711        H  0.65089072  0.19403262  0.54494035     0.19100
H712        H  0.57462091  0.34193648  0.56930691     0.19100
C713        C  0.83262351  0.36658084  0.55706580    -0.06800
C714        C  0.85444784  0.34893512  0.56853039    -0.17900
C715        C  0.88443091  0.37795506  0.56946967     0.10400
C716        C  0.89326558  0.42460298  0.55844999    -0.06700
C717        C  0.87131882  0.44230021  0.54705230    -0.17900
C718        C  0.84134019  0.41368504  0.54618405     0.10500
S719        S  0.90951880  0.35619305  0.58556539    -0.32900
S720        S  0.81544260  0.43847648  0.53066084    -0.32900
H721        H  0.80139517  0.37955486  0.52863713     0.28500
H722        H  0.92283712  0.41610495  0.58736561     0.28500
H723        H  0.84748390  0.31474406  0.57727973     0.19100
H724        H  0.87800584  0.47701329  0.53837841     0.19100
C725        C  0.73871921  0.32795794  0.51187495    -0.06800
C726        C  0.71313098  0.35852598  0.50467861    -0.17900
C727        C  0.70812142  0.35368855  0.48863673     0.10400
C728        C  0.72951268  0.31836681  0.47932405    -0.09900
C729        C  0.75519771  0.28805656  0.48653942    -0.17900
C730        C  0.76041841  0.29341460  0.50258583     0.10500
S731        S  0.67294067  0.39111123  0.48094173    -0.32900
S732        S  0.79590297  0.25873070  0.51089306    -0.32900
H733        H  0.81026898  0.24031378  0.49683359     0.28500
H734        H  0.66673409  0.34462798  0.46987621     0.28500
H735        H  0.69603625  0.38404901  0.51170160     0.19100
H736        H  0.77184930  0.26178804  0.47948608     0.19100
C737        C  0.98077227  0.04587254  0.85258370    -0.06800
C738        C  0.99902540  0.00542132  0.86176805    -0.17900
C739        C  0.00457600  0.01785604  0.87755686     0.10400
C740        C  0.99110617  0.07225299  0.88451349    -0.06700
C741        C  0.97222261  0.11170483  0.87525202    -0.17900
C742        C  0.96668733  0.09881607  0.85959322     0.10500
S743        S  0.03052990  0.96488099  0.88801633    -0.32900
S744        S  0.94000151  0.15019548  0.84930484    -0.32900
H745        H  0.92622345  0.10110859  0.84091465     0.28500
H746        H  0.02781003  0.91432201  0.87774141     0.28500
H747        H  0.01016519  0.96542940  0.85639046     0.19100
H748        H  0.96093996  0.15237911  0.88029820     0.19100
C749        C  0.99024259  0.52940898  0.59980574    -0.06800
C750        C  0.99975094  0.05247817  0.60642042    -0.17900
C751        C  0.99891451  0.06581542  0.62233847     0.10400
C752        C  0.99276847  0.01714444  0.63315507    -0.06700
C753        C  0.98763359  0.50910891  0.62761924    -0.17900
C754        C  0.98689552  0.48709314  0.61234030     0.10500
S755        S  0.00507652  0.14593244  0.62781245    -0.32900
S756        S  0.97999048  0.40485271  0.60972774    -0.32900
H757        H  0.00989658  0.39546893  0.60254373     0.28500
H758        H  0.97614314  0.14938780  0.63615087     0.28500
H759        H  0.00383451  0.09072104  0.59832565     0.19100
H760        H  0.98462194  0.47515429  0.63689254     0.19100
C761        C  0.98252852  0.02740033  0.72656878    -0.06800
C762        C  0.96928059  0.07762594  0.73466631    -0.17900
C763        C  0.96497605  0.07485466  0.75077458     0.10400
C764        C  0.97544058  0.02163032  0.75926347    -0.06700
C765        C  0.98799839  0.97069823  0.75113534    -0.17900
C766        C  0.99189860  0.97308548  0.73497016     0.10500
S767        S  0.94445263  0.13974974  0.75962848    -0.32900
S768        S  0.01059490  0.90635295  0.72598927    -0.32900
H769        H  0.02846077  0.94139202  0.71511862     0.28500
H770        H  0.92786445  0.10284543  0.77063184     0.28500
H771        H  0.96103191  0.11841098  0.72833197     0.19100
H772        H  0.99627711  0.92994930  0.75746795     0.19100
C773        C  0.73194553  0.09649666  0.85354597    -0.06800
C774        C  0.75096583  0.04387634  0.85687689    -0.17900
C775        C  0.75540612  0.02276544  0.87218425     0.10400
C776        C  0.73963345  0.05375555  0.88446490    -0.06700
C777        C  0.71991105  0.10533421  0.88093330    -0.17900
C778        C  0.71616277  0.12716890  0.86573885     0.10500
S779        S  0.78228894  0.95814098  0.87523219    -0.32900
S780        S  0.68883279  0.19079473  0.86245822    -0.32900
H781        H  0.71116173  0.22763148  0.85426392     0.28500
H782        H  0.79691330  0.98411114  0.88837388     0.28500
H783        H  0.76306685  0.01989335  0.84747416     0.19100
H784        H  0.70701134  0.12900523  0.89012854     0.19100
C785        C  0.88458439  0.05655198  0.80640430    -0.06800
C786        C  0.87314323  0.10312564  0.81624696    -0.17900
C787        C  0.84057252  0.11314561  0.81813858     0.10400
C788        C  0.81858316  0.07986042  0.80887807    -0.06700
C789        C  0.82980307  0.03197636  0.79924815    -0.17900
C790        C  0.86261799  0.01965500  0.79798851     0.10500
S791        S  0.82877295  0.16701742  0.83316938    -0.32900
S792        S  0.87490487  0.95919866  0.78475052    -0.32900
H793        H  0.90261132  0.99033769  0.77950435     0.28500
H794        H  0.80141446  0.13284582  0.83763201     0.28500
H795        H  0.88964470  0.13082506  0.82292637     0.19100
H796        H  0.81316784  0.00602615  0.79216516     0.19100
C797        C  0.74447420  0.24433929  0.63652223    -0.06800
C798        C  0.72286847  0.21492666  0.62653522    -0.17900
C799        C  0.71969985  0.23416570  0.61099707     0.10400
C800        C  0.73854810  0.28409190  0.60503571    -0.06700
C801        C  0.76003029  0.31379512  0.61495794    -0.17900
C802        C  0.76368527  0.29383670  0.63043110     0.10500
S803        S  0.69063981  0.19364873  0.59939967    -0.32900
S804        S  0.79504355  0.33075438  0.64134320    -0.32900
H805        H  0.80498828  0.27522316  0.64872253     0.28500
H806        H  0.68252342  0.24590505  0.59030144     0.28500
H807        H  0.70769219  0.17770744  0.63094424     0.19100
H808        H  0.77542176  0.35035739  0.61038082     0.19100
C809        C  0.83348498  0.14298383  0.68191207    -0.06800
C810        C  0.85622351  0.17198380  0.67228433    -0.17900
C811        C  0.88639488  0.14517994  0.66994586     0.10400
C812        C  0.89474427  0.08921006  0.67789378    -0.06700
C813        C  0.87184399  0.06000501  0.68741701    -0.17900
C814        C  0.84153564  0.08634510  0.68958287     0.10500
S815        S  0.91240406  0.18269024  0.65591789    -0.32900
S816        S  0.81460589  0.04658585  0.70281094    -0.32900
H817        H  0.80042928  0.10140634  0.70856087     0.28500
H818        H  0.92554297  0.12646839  0.65040630     0.28500
H819        H  0.84990232  0.21404935  0.66593191     0.19100
H820        H  0.87802634  0.01785060  0.69376243     0.19100
C821        C  0.73853529  0.17265678  0.72897021    -0.06800
C822        C  0.76165631  0.20167964  0.73832100    -0.17900
C823        C  0.76035748  0.19750720  0.75460763     0.10400
C824        C  0.73444776  0.16624316  0.76190728    -0.06700
C825        C  0.71171827  0.13650116  0.75255384    -0.17900
C826        C  0.71345150  0.13926641  0.73633216     0.10500
S827        S  0.79357211  0.22892693  0.76528137    -0.32900
S828        S  0.68177747  0.10220906  0.72580349    -0.32900
H829        H  0.67921482  0.15204693  0.71528129     0.28500
H830        H  0.79502138  0.17894602  0.77597640     0.28500
H831        H  0.78141257  0.22651278  0.73287299     0.19100
H832        H  0.69192556  0.11159296  0.75794774     0.19100
C833        C  0.49516159  0.28933893  0.63625430    -0.06800
C834        C  0.50032721  0.22683226  0.63177777    -0.17900
C835        C  0.49821943  0.20783218  0.61628807     0.10400
C836        C  0.49097326  0.25229579  0.60459170    -0.06700
C837        C  0.48717892  0.31536592  0.60905415    -0.17900
C838        C  0.48966531  0.33432468  0.62453818     0.10500
S839        S  0.50442603  0.12603894  0.61253881    -0.32900
S840        S  0.48450400  0.41612226  0.62849999    -0.32900
H841        H  0.51436486  0.42143193  0.63580584     0.28500
H842        H  0.47466505  0.11876276  0.60523947     0.28500
H843        H  0.50530970  0.19158813  0.64053867     0.19100
H844        H  0.48235585  0.35103046  0.60039173     0.19100
C845        C  0.58235418  0.26851396  0.68390116    -0.06800
C846        C  0.60257537  0.30249529  0.67374963    -0.17900
C847        C  0.63557452  0.29189553  0.67326883     0.10400
C848        C  0.64903834  0.24741078  0.68341691    -0.06700
C849        C  0.62872893  0.21216112  0.69319381    -0.17900
C850        C  0.59579189  0.22313229  0.69382006     0.10500
S851        S  0.65882772  0.33334985  0.65878473    -0.32900
S852        S  0.57266730  0.18016108  0.70806123    -0.32900
H853        H  0.55332457  0.23111063  0.71231596     0.28500
H854        H  0.67918682  0.28302697  0.65531061     0.28500
H855        H  0.59247122  0.33676576  0.66585981     0.19100
H856        H  0.63850989  0.17623343  0.70058556     0.19100
C857        C  0.47959234  0.35070844  0.85500846    -0.06800
C858        C  0.50479766  0.33018032  0.86433370    -0.17900
C859        C  0.50909976  0.35389855  0.87930628     0.10400
C860        C  0.48727840  0.39842948  0.88538797    -0.06700
C861        C  0.46183134  0.41842391  0.87606201    -0.17900
C862        C  0.45772437  0.39486049  0.86103046     0.10500
S863        S  0.54409536  0.32805673  0.88967710    -0.32900
S864        S  0.42399113  0.42254064  0.85001164    -0.32900
H865        H  0.42030726  0.36778056  0.84125967     0.28500
H866        H  0.54933422  0.38530772  0.89718726     0.28500
H867        H  0.52237315  0.29827844  0.85957998     0.19100
H868        H  0.44445645  0.45103403  0.88067443     0.19100
C869        C  0.57669015  0.26534917  0.81184202    -0.06800
C870        C  0.58131081  0.20186447  0.81584516    -0.17900
C871        C  0.61170891  0.17466399  0.81613133     0.10400
C872        C  0.63856428  0.20998204  0.81138744    -0.06700
C873        C  0.63434678  0.27409857  0.80818242    -0.17900
C874        C  0.60409798  0.30222630  0.80857459     0.10500
S875        S  0.61470681  0.09652433  0.82389581    -0.32900
S876        S  0.60274001  0.38521393  0.80504111    -0.32900
H877        H  0.58180299  0.38004484  0.79246955     0.28500
H878        H  0.64282103  0.10818802  0.83229770     0.28500
H879        H  0.56109668  0.17297004  0.81918822     0.19100
H880        H  0.65481721  0.30280239  0.80511791     0.19100
C881        C  0.48930304  0.31118132  0.76214408    -0.06800
C882        C  0.46274077  0.28863329  0.75407758    -0.17900
C883        C  0.46047026  0.29570607  0.73789641     0.10400
C884        C  0.48550200  0.32526023  0.72938879    -0.06700
C885        C  0.51210861  0.34749899  0.73745113    -0.17900
C886        C  0.51446349  0.33997243  0.75359915     0.10500
S887        S  0.42433003  0.26828436  0.72885608    -0.32900
S888        S  0.55106128  0.36502287  0.76253853    -0.32900
H889        H  0.55113012  0.31720317  0.77385647     0.28500
H890        H  0.42377517  0.31482559  0.71722785     0.28500
H891        H  0.44298044  0.26787314  0.76048124     0.19100
H892        H  0.53190809  0.36813329  0.73105213     0.19100
C893        C  0.24681799  0.51994869  0.63203027    -0.06800
C894        C  0.22303811  0.49180322  0.62300900    -0.17900
C895        C  0.21912528  0.98354975  0.60620299     0.10400
C896        C  0.23824743  0.03260283  0.60007341    -0.06700
C897        C  0.25966580  0.06312493  0.60987008    -0.17900
C898        C  0.26306827  0.04459308  0.62543151     0.10500
S899        S  0.18943726  0.94395952  0.59478342    -0.32900
S900        S  0.29374031  0.08322584  0.63644782    -0.32900
H901        H  0.30861977  0.54880598  0.64273798     0.28500
H902        H  0.18161029  0.99641041  0.58563837     0.28500
H903        H  0.20782499  0.45599486  0.62809581     0.19100
H904        H  0.27504444  0.09955898  0.60516271     0.19100
C905        C  0.15235628  0.53896247  0.67674568    -0.06800
C906        C  0.13285903  0.01946652  0.68956668    -0.17900
C907        C  0.09979426  0.02293569  0.69177404     0.10400
C908        C  0.07918123  0.98676563  0.68242391    -0.06700
C909        C  0.09239363  0.94587373  0.67151974    -0.17900
C910        C  0.13008854  0.50220417  0.66838847     0.10500
S911        S  0.08545448  0.07406886  0.70688024    -0.32900
S912        S  0.14179401  0.44306366  0.65465600    -0.32900
H913        H  0.16856194  0.47647684  0.64912181     0.28500
H914        H  0.05769334  0.03945488  0.71031028     0.28500
H915        H  0.14836310  0.04680327  0.69692481     0.19100
H916        H  0.07678138  0.91943885  0.66401244     0.19100
C917        C  0.33590513  0.42774490  0.68036147    -0.06800
C918        C  0.36003590  0.45676904  0.67157795    -0.17900
C919        C  0.39071752  0.43082602  0.67059144     0.10400
C920        C  0.39823757  0.37582385  0.67915984    -0.06700
C921        C  0.37397510  0.34651535  0.68783091    -0.17900
C922        C  0.34311532  0.37180430  0.68857762     0.10500
S923        S  0.41841562  0.46785257  0.65728613    -0.32900
S924        S  0.31440322  0.33156337  0.70077310    -0.32900
H925        H  0.29935689  0.38621523  0.70609112     0.28500
H926        H  0.43187188  0.41121953  0.65225369     0.28500
H927        H  0.35453525  0.49825407  0.66481407     0.19100
H928        H  0.37933763  0.30483603  0.69454156     0.19100
C929        C  0.23352416  0.36980199  0.88071162    -0.06800
C930        C  0.26287170  0.38519952  0.87366269    -0.17900
C931        C  0.26412659  0.41479311  0.85904261     0.10400
C932        C  0.23544824  0.42789895  0.85104267    -0.06700
C933        C  0.20617210  0.41288200  0.85819572    -0.17900
C934        C  0.20488146  0.38493036  0.87294208     0.10500
S935        S  0.30295795  0.43261044  0.85098914    -0.32900
S936        S  0.16589065  0.36952617  0.88123492    -0.32900
H937        H  0.17508370  0.31753479  0.89022776     0.28500
H938        H  0.29405702  0.49070717  0.84468978     0.28500
H939        H  0.28492964  0.37615615  0.87983424     0.19100
H940        H  0.18405653  0.42163655  0.85204219     0.19100
C941        C  0.32581463  0.39624605  0.80376072    -0.06800
C942        C  0.34810885  0.43226310  0.79529688    -0.17900
C943        C  0.38076146  0.41866385  0.79557268     0.10400
C944        C  0.39193580  0.36979297  0.80518813    -0.06700
C945        C  0.36956796  0.33333798  0.81356974    -0.17900
C946        C  0.33674495  0.34545011  0.81278383     0.10500
S947        S  0.40653628  0.46354125  0.78286254    -0.32900
S948        S  0.31031871  0.29787051  0.82448192    -0.32900
H949        H  0.29232923  0.27806385  0.81167922     0.28500
H950        H  0.42482918  0.41182647  0.77809822     0.28500
H951        H  0.33996842  0.47119706  0.78825724     0.19100
H952        H  0.37771736  0.29543499  0.82095847     0.19100
C953        C  0.14733558  0.53430137  0.80505385    -0.06800
C954        C  0.12462534  0.51596202  0.81619992    -0.17900
C955        C  0.08701135  0.94725335  0.81539304     0.10400
C956        C  0.07329812  0.99201735  0.80525992    -0.06700
C957        C  0.09244745  0.02050163  0.79380834    -0.17900
C958        C  0.12475749  0.00487917  0.79221481     0.10500
S959        S  0.06515357  0.91088811  0.83114659    -0.32900
S960        S  0.14680987  0.04005893  0.77632810    -0.32900
H961        H  0.17870967  0.54829218  0.77633548     0.28500
H962        H  0.04667464  0.96399397  0.83448377     0.28500
H963        H  0.13033988  0.47899024  0.82440535     0.19100
H964        H  0.08192546  0.05353497  0.78572117     0.19100
C965        C  0.23815062  0.47774912  0.75813626    -0.06800
C966        C  0.21519894  0.44416634  0.74963959    -0.17900
C967        C  0.21525968  0.44407586  0.73334665     0.10400
C968        C  0.23945080  0.47659503  0.72512631    -0.06700
C969        C  0.26204840  0.51102812  0.73359394    -0.17900
C970        C  0.26181517  0.51172824  0.74986318     0.10500
S971        S  0.18272324  0.40500354  0.72381211    -0.32900
S972        S  0.29340013  0.55419561  0.75923401    -0.32900
H973        H  0.29999858  0.50606797  0.76993458     0.28500
H974        H  0.17868541  0.45147927  0.71233568     0.28500
H975        H  0.19649534  0.41872126  0.75575217     0.19100
H976        H  0.28064768  0.53672003  0.72746588     0.19100
C977        C  0.22562789  0.16592744  0.34922015    -0.06800
C978        C  0.21657253  0.10537490  0.35427560    -0.17900
C979        C  0.21605705  0.08820680  0.37001558     0.10400
C980        C  0.22590641  0.13143474  0.38131732    -0.06700
C981        C  0.23467986  0.19207897  0.37637248    -0.17900
C982        C  0.23409218  0.21007889  0.36066716     0.10500
S983        S  0.20109233  0.01143036  0.37485474    -0.32900
S984        S  0.24408356  0.29018503  0.35626451    -0.32900
H985        H  0.21593026  0.30055943  0.34775421     0.28500
H986        H  0.18228446  0.03195574  0.38743960     0.28500
H987        H  0.20937288  0.07060562  0.34591410     0.19100
H988        H  0.24190183  0.22634335  0.38487231     0.19100
C989        C  0.23502293  0.24707784  0.13015111    -0.06800
C990        C  0.24741048  0.30460091  0.12455637    -0.17900
C991        C  0.24805394  0.31957057  0.10870650     0.10400
C992        C  0.23480803  0.27759692  0.09802168    -0.06700
C993        C  0.22238377  0.22037163  0.10346223    -0.17900
C994        C  0.22288651  0.20410654  0.11922641     0.10500
S995        S  0.26792706  0.39083595  0.10281860    -0.32900
S996        S  0.20804913  0.12762074  0.12434781    -0.32900
H997        H  0.23715635  0.10901172  0.13107034     0.28500
H998        H  0.28263383  0.36538279  0.08954976     0.28500
H999        H  0.25755950  0.33800131  0.13252811     0.19100
H1000       H  0.21274298  0.18722720  0.09525971     0.19100
C1001       C  0.23445518  0.20816321  0.22337023    -0.06800
C1002       C  0.24905638  0.15732983  0.23080140    -0.17900
C1003       C  0.25238948  0.15575768  0.24698222     0.10400
C1004       C  0.24039628  0.20566581  0.25606472    -0.06700
C1005       C  0.22604606  0.25664781  0.24859783    -0.17900
C1006       C  0.22243193  0.25792360  0.23245684     0.10500
S1007       S  0.27332175  0.08994210  0.25525412    -0.32900
S1008       S  0.20031958  0.32245384  0.22427816    -0.32900
H1009       H  0.18513490  0.28665655  0.21282495     0.28500
H1010       H  0.28711424  0.12406279  0.26739937     0.28500
H1011       H  0.25889262  0.11962706  0.22393286     0.19100
H1012       H  0.21598818  0.29417962  0.25544704     0.19100
C1013       C  0.48459709  0.11076387  0.35428550    -0.06800
C1014       C  0.47896691  0.17232479  0.35925292    -0.17900
C1015       C  0.47877488  0.18830276  0.37499057     0.10400
C1016       C  0.48492785  0.14192481  0.38641820    -0.06700
C1017       C  0.49055734  0.08016591  0.38137763    -0.17900
C1018       C  0.49077629  0.06433553  0.36560411     0.10500
S1019       S  0.47017579  0.26868471  0.37943498    -0.32900
S1020       S  0.50079602  0.98487310  0.36077021    -0.32900
H1021       H  0.52200253  0.00172287  0.34867896     0.28500
H1022       H  0.44323741  0.25325861  0.38858244     0.28500
H1023       H  0.47408111  0.20867693  0.35075788     0.19100
H1024       H  0.49545047  0.04350187  0.38976912     0.19100
C1025       C  0.39186567  0.12730817  0.30506888    -0.06800
C1026       C  0.37800976  0.16738522  0.31595347    -0.17900
C1027       C  0.34481022  0.17457882  0.31682208     0.10400
C1028       C  0.32488684  0.14279244  0.30620298    -0.06700
C1029       C  0.33874977  0.10194819  0.29546481    -0.17900
C1030       C  0.37195838  0.09425698  0.29471644     0.10500
S1031       S  0.32920658  0.22243085  0.33229197    -0.32900
S1032       S  0.38764977  0.04328498  0.27991933    -0.32900
H1033       H  0.41570246  0.07809720  0.27725788     0.28500
H1034       H  0.30115779  0.18707415  0.33456743     0.28500
H1035       H  0.39301251  0.19087936  0.32431037     0.19100
H1036       H  0.32381207  0.07794499  0.28719022     0.19100
C1037       C  0.47619673  0.01126701  0.13549842    -0.06800
C1038       C  0.49842058  0.04202679  0.12584929    -0.17900
C1039       C  0.50259012  0.02474894  0.11032014     0.10400
C1040       C  0.48105634  0.50808624  0.10324439    -0.06700
C1041       C  0.46125269  0.47416236  0.11335856    -0.17900
C1042       C  0.45733335  0.49188434  0.12888049     0.10500
S1043       S  0.53307263  0.06505381  0.09919657    -0.32900
S1044       S  0.42738679  0.44977300  0.13993746    -0.32900
H1045       H  0.41563429  0.50326669  0.14748877     0.28500
H1046       H  0.54138336  0.01343041  0.08999024     0.28500
H1047       H  0.51348721  0.07847219  0.13055562     0.19100
H1048       H  0.44732336  0.43550965  0.10893120     0.19100
C1049       C  0.32622660  0.16436888  0.17552617    -0.06800
C1050       C  0.34834844  0.19323211  0.18531483    -0.17900
C1051       C  0.37855448  0.16715408  0.18777519     0.10400
C1052       C  0.38721542  0.11131104  0.18010838    -0.06700
C1053       C  0.36536300  0.08297083  0.17013500    -0.17900
C1054       C  0.33531937  0.10940665  0.16751408     0.10500
S1055       S  0.40430792  0.20573322  0.20144893    -0.32900
S1056       S  0.31043518  0.07219544  0.15322964    -0.32900
H1057       H  0.29695645  0.12816812  0.14762255     0.28500
H1058       H  0.41840644  0.15060918  0.20718198     0.28500
H1059       H  0.34156273  0.23470422  0.19167603     0.19100
H1060       H  0.37224706  0.04141865  0.16382617     0.19100
C1061       C  0.48047948  0.06663012  0.22811713    -0.06800
C1062       C  0.47061768  0.01426928  0.23700149    -0.17900
C1063       C  0.47314864  0.01226538  0.25317402     0.10400
C1064       C  0.48500080  0.06480763  0.26117698    -0.06700
C1065       C  0.49521226  0.11701110  0.25231678    -0.17900
C1066       C  0.49302806  0.11870295  0.23607952     0.10500
S1067       S  0.46087852  0.94068503  0.26262050    -0.32900
S1068       S  0.50676732  0.18882286  0.22645056    -0.32900
H1069       H  0.47730568  0.19929842  0.21907556     0.28500
H1070       H  0.49061824  0.93206021  0.26987067     0.28500
H1071       H  0.46119239  0.97322216  0.23131953     0.19100
H1072       H  0.50468199  0.15786796  0.25807106     0.19100
C1073       C  0.98545653  0.37541737  0.34990200    -0.06800
C1074       C  0.98318543  0.43844752  0.35458875    -0.17900
C1075       C  0.98103988  0.45555155  0.37025442     0.10400
C1076       C  0.98124284  0.40888470  0.38196284    -0.06700
C1077       C  0.98313619  0.34579769  0.37726385    -0.17900
C1078       C  0.98569282  0.32874174  0.36159897     0.10500
S1079       S  0.97903468  0.53785687  0.37433323    -0.32900
S1080       S  0.99065161  0.24682631  0.35756450    -0.32900
H1081       H  0.01688022  0.25650198  0.34749822     0.28500
H1082       H  0.94919980  0.53265819  0.38189226     0.28500
H1083       H  0.98277131  0.47546348  0.34594798     0.19100
H1084       H  0.98337846  0.30877766  0.38590613     0.19100
C1085       C  0.07870964  0.30506008  0.30058204    -0.06800
C1086       C  0.08557003  0.24872032  0.29287148    -0.17900
C1087       C  0.11656431  0.22429693  0.29213675     0.10400
C1088       C  0.14154607  0.25473085  0.30003764    -0.06700
C1089       C  0.13476610  0.31173766  0.30753823    -0.17900
C1090       C  0.10396257  0.33750658  0.30768348     0.10500
S1091       S  0.12258329  0.15569388  0.28046164    -0.32900
S1092       S  0.09788560  0.40882885  0.31823074    -0.32900
H1093       H  0.08580057  0.44104254  0.30523802     0.28500
H1094       H  0.15132049  0.17736708  0.27372426     0.28500
H1095       H  0.06652122  0.22322547  0.28728353     0.19100
H1096       H  0.15355752  0.33627538  0.31360534     0.19100
C1097       C  0.98128577  0.22462375  0.10101398    -0.06800
C1098       C  0.00180725  0.19725520  0.11194936    -0.17900
C1099       C  0.00366193  0.21989957  0.12716437     0.10400
C1100       C  0.98455912  0.27118853  0.13181222    -0.06700
C1101       C  0.96384579  0.29837415  0.12103092    -0.17900
C1102       C  0.96157409  0.27529311  0.10580376     0.10500
S1103       S  0.03133027  0.18181656  0.14012238    -0.32900
S1104       S  0.93143889  0.30815548  0.09316862    -0.32900
H1105       H  0.92217436  0.35779355  0.10282406     0.28500
H1106       H  0.03976256  0.23664483  0.14801163     0.28500
H1107       H  0.01716188  0.15896935  0.10854191     0.19100
H1108       H  0.94826490  0.33566484  0.12482227     0.19100
C1109       C  0.07464472  0.28061488  0.17931583    -0.06800
C1110       C  0.09422142  0.32095647  0.17036951    -0.17900
C1111       C  0.12751925  0.31550440  0.17034942     0.10400
C1112       C  0.14192826  0.26772225  0.17916978    -0.06700
C1113       C  0.12250430  0.22769842  0.18820588    -0.17900
C1114       C  0.08925232  0.23432253  0.18861983     0.10500
S1115       S  0.15010246  0.36729626  0.15788111    -0.32900
S1116       S  0.06720560  0.18408846  0.20171627    -0.32900
H1117       H  0.04726109  0.23219592  0.20713142     0.28500
H1118       H  0.16796194  0.39192991  0.17020119     0.28500
H1119       H  0.08350483  0.35682313  0.16314525     0.19100
H1120       H  0.13341820  0.19111338  0.19513972     0.19100
C1121       C  0.98013705  0.33579835  0.22374596    -0.06800
C1122       C  0.99349864  0.28533985  0.23203932    -0.17900
C1123       C  0.99469091  0.28449343  0.24824947     0.10400
C1124       C  0.98142213  0.33446492  0.25667985    -0.06700
C1125       C  0.96802379  0.38515623  0.24841654    -0.17900
C1126       C  0.96692541  0.38606256  0.23211644     0.10500
S1127       S  0.01542514  0.22045184  0.25736254    -0.32900
S1128       S  0.94685339  0.45058363  0.22281188    -0.32900
H1129       H  0.93217951  0.41412785  0.21133103     0.28500
H1130       H  0.03180699  0.25922097  0.26774513     0.28500
H1131       H  0.00377599  0.24634754  0.22579755     0.19100
H1132       H  0.95765989  0.42391471  0.25473291     0.19100
C1133       C  0.73690744  0.38158570  0.35314945    -0.06800
C1134       C  0.73757131  0.43120523  0.36367264    -0.17900
C1135       C  0.73807367  0.42087527  0.37976679     0.10400
C1136       C  0.73617495  0.35895540  0.38590523    -0.06700
C1137       C  0.73667591  0.30917990  0.37540668    -0.17900
C1138       C  0.73787043  0.31951505  0.35927458     0.10500
S1139       S  0.74253411  0.48942480  0.39162887    -0.32900
S1140       S  0.74186345  0.25095519  0.34736445    -0.32900
H1141       H  0.76590174  0.27726356  0.33782796     0.28500
H1142       H  0.76530446  0.46176902  0.40146178     0.28500
H1143       H  0.73781289  0.47897664  0.35934435     0.19100
H1144       H  0.73623031  0.26149102  0.37978700     0.19100
C1145       C  0.82279998  0.37803972  0.30215931    -0.06800
C1146       C  0.83701320  0.33732571  0.31283858    -0.17900
C1147       C  0.87023647  0.33570069  0.31452999     0.10400
C1148       C  0.88994342  0.37377710  0.30487430    -0.06700
C1149       C  0.87568486  0.41408036  0.29409854    -0.17900
C1150       C  0.84245518  0.41649953  0.29262380     0.10500
S1151       S  0.88579457  0.28746442  0.33000885    -0.32900
S1152       S  0.82647576  0.46908954  0.27819058    -0.32900
H1153       H  0.79982442  0.43147352  0.27490535     0.28500
H1154       H  0.91119406  0.32788367  0.33364188     0.28500
H1155       H  0.82209400  0.30978466  0.32063954     0.19100
H1156       H  0.89051237  0.44246576  0.28645558     0.19100
C1157       C  0.63825073  0.97485167  0.31103130    -0.06800
C1158       C  0.61578711  0.94746524  0.30120113    -0.17900
C1159       C  0.58503743  0.97229451  0.29978848     0.10400
C1160       C  0.57603129  0.02492909  0.30867423    -0.06700
C1161       C  0.59819169  0.05155124  0.31877409    -0.17900
C1162       C  0.62895472  0.02662536  0.32023451     0.10500
S1163       S  0.55898904  0.93696470  0.28573036    -0.32900
S1164       S  0.65476247  0.06165374  0.33447689    -0.32900
H1165       H  0.67044642  0.00570321  0.33848960     0.28500
H1166       H  0.54495091  0.99353923  0.28093226     0.28500
H1167       H  0.62273302  0.90857939  0.29391664     0.19100
H1168       H  0.59113764  0.09064483  0.32597304     0.19100
C1169       C  0.73310220  0.97272433  0.13420796    -0.06800
C1170       C  0.75771648  0.94226218  0.12620690    -0.17900
C1171       C  0.76347523  0.95442646  0.11040887     0.10400
C1172       C  0.74354937  0.99688432  0.10229913    -0.06700
C1173       C  0.71961626  0.02895315  0.11046520    -0.17900
C1174       C  0.71413903  0.01720499  0.12628948     0.10500
S1175       S  0.79073227  0.47004871  0.09879354    -0.32900
S1176       S  0.68183229  0.05870476  0.13559201    -0.32900
H1177       H  0.67385987  0.01085655  0.14622484     0.28500
H1178       H  0.80865884  0.88479212  0.11397636     0.28500
H1179       H  0.77012970  0.44017330  0.13008064     0.19100
H1180       H  0.70411241  0.06118176  0.10434104     0.19100
C1181       C  0.63549854  0.97703053  0.18257481    -0.06800
C1182       C  0.61560718  0.93828661  0.17366485    -0.17900
C1183       C  0.58231821  0.94498563  0.17399351     0.10400
C1184       C  0.56852643  0.99191137  0.18325801    -0.06700
C1185       C  0.58831333  0.02964041  0.19238289    -0.17900
C1186       C  0.62142013  0.02194705  0.19239782     0.10500
S1187       S  0.56084704  0.42949449  0.15950096    -0.32900
S1188       S  0.64405329  0.06939023  0.20561384    -0.32900
H1189       H  0.66459233  0.02069535  0.21022236     0.28500
H1190       H  0.54076530  0.40418997  0.17110568     0.28500
H1191       H  0.62734723  0.42891839  0.16572891     0.19100
H1192       H  0.57779563  0.06559757  0.19960454     0.19100
C1193       C  0.88669349  0.36050385  0.17690516    -0.06800
C1194       C  0.87781843  0.41387548  0.16823512    -0.17900
C1195       C  0.84662037  0.43756623  0.16869307     0.10400
C1196       C  0.82347411  0.40792713  0.17817982    -0.06700
C1197       C  0.83217740  0.35450386  0.18676171    -0.17900
C1198       C  0.86345207  0.33130920  0.18648317     0.10500
S1199       S  0.83762558  0.50382962  0.15641597    -0.32900
S1200       S  0.87248555  0.26732622  0.19943862    -0.32900
H1201       H  0.90065934  0.29482382  0.20509181     0.28500
H1202       H  0.80685069  0.48339545  0.15236220     0.28500
H1203       H  0.89530351  0.43713799  0.16083923     0.19100
H1204       H  0.81457534  0.33160178  0.19416615     0.19100
C1205       C  0.73231112  0.43793105  0.22745516    -0.06800
C1206       C  0.70834883  0.40230459  0.23477624    -0.17900
C1207       C  0.70435936  0.40287666  0.25097298     0.10400
C1208       C  0.72513989  0.43907637  0.26029241    -0.06700
C1209       C  0.74883697  0.47518616  0.25293366    -0.17900
C1210       C  0.75316740  0.47380788  0.23678939     0.10500
S1211       S  0.67114595  0.35896182  0.25890271    -0.32900
S1212       S  0.78707637  0.51601163  0.22897294    -0.32900
H1213       H  0.79400181  0.47208363  0.21733158     0.28500
H1214       H  0.66435816  0.40161852  0.27084327     0.28500
H1215       H  0.69173537  0.37583711  0.22779953     0.19100
H1216       H  0.76519093  0.50238263  0.25985809     0.19100
O1217       O  0.69283694  0.52957738  0.18403998    -0.75100
O1218       O  0.78232267  0.48638458  0.18076921    -0.75100
O1219       O  0.73601475  0.52384231  0.16075374    -0.75200
O1220       O  0.73917484  0.49690412  0.20430564    -0.75200
O1221       O  0.72552396  0.89201609  0.20184405    -0.75100
O1222       O  0.72700383  0.90905219  0.15710349    -0.75100
O1223       O  0.77060472  0.88401497  0.17925841    -0.75100
O1224       O  0.68047423  0.42955184  0.18018203    -0.75200
Ni1225     Ni  0.73812162  0.51266817  0.18259147     1.25400
Ni1226     Ni  0.72571356  0.89587677  0.17935893     1.25400
C1227       C  0.67194700  0.48596184  0.18250922     0.87100
C1228       C  0.79023176  0.92963207  0.17978158     0.87000
C1229       C  0.72935236  0.47906543  0.15164498     0.87100
C1230       C  0.73105685  0.94087878  0.21002351     0.87200
O1231       O  0.76982532  0.85869724  0.30338683    -0.75100
O1232       O  0.67983935  0.89801570  0.30745177    -0.75100
O1233       O  0.72174914  0.88626131  0.28350660    -0.75200
O1234       O  0.72722795  0.86504459  0.32715898    -0.75200
O1235       O  0.74033050  0.96499548  0.33012313    -0.75100
O1236       O  0.73343487  0.98752688  0.28545193    -0.75100
O1237       O  0.69334334  0.48991995  0.31104132    -0.75100
O1238       O  0.78083221  0.96030866  0.30547130    -0.75200
Ni1239     Ni  0.72421318  0.87340845  0.30528345     1.25400
Ni1240     Ni  0.73732303  0.98137023  0.30789883     1.25400
C1241       C  0.79001578  0.90414037  0.30365179     0.87100
C1242       C  0.67202652  0.95545245  0.30967277     0.87000
C1243       C  0.72651882  0.93951893  0.27716690     0.87100
C1244       C  0.73518289  0.91010514  0.33592435     0.87200
O1245       O  0.02473248  0.77475044  0.18062303    -0.75100
O1246       O  0.93369601  0.80478378  0.17982339    -0.75100
O1247       O  0.97947773  0.77884095  0.15834702    -0.75200
O1248       O  0.97871676  0.79512778  0.20197034    -0.75200
O1249       O  0.98853682  0.89731224  0.19996220    -0.75100
O1250       O  0.98721051  0.88147469  0.15529318    -0.75100
O1251       O  0.94359648  0.90687039  0.17767324    -0.75100
O1252       O  0.03274963  0.87717446  0.17753482    -0.75200
Ni1253     Ni  0.97881501  0.78471819  0.18024288     1.25400
Ni1254     Ni  0.98835977  0.89439376  0.17750041     1.25400
C1255       C  0.04363748  0.82202871  0.17941315     0.87100
C1256       C  0.92384909  0.86165887  0.17891085     0.87000
C1257       C  0.98333449  0.82658248  0.14961243     0.87100
C1258       C  0.98358545  0.84793765  0.20826410     0.87200
O1259       O  0.94600362  0.92316991  0.30355385    -0.75100
O1260       O  0.03691926  0.88989244  0.30259633    -0.75100
O1261       O  0.99014704  0.89978635  0.28132677    -0.75200
O1262       O  0.99310253  0.91852185  0.32482069    -0.75200
O1263       O  0.98257937  0.81754504  0.32847038    -0.75100
O1264       O  0.98080379  0.79761129  0.28382881    -0.75100
O1265       O  0.02620639  0.78863650  0.30588189    -0.75100
O1266       O  0.93729463  0.82093041  0.30639808    -0.75200
Ni1267     Ni  0.99193303  0.91143121  0.30298557     1.25400
Ni1268     Ni  0.98145675  0.80248691  0.30628066     1.25400
C1269       C  0.92676214  0.87659910  0.30527094     0.87100
C1270       C  0.04631248  0.83286056  0.30385177     0.87000
C1271       C  0.98515699  0.84653400  0.27528475     0.87100
C1272       C  0.98760927  0.87250434  0.33394320     0.87200
O1273       O  0.51451547  0.49737807  0.18317935    -0.75100
O1274       O  0.42686520  0.55326298  0.18267835    -0.75100
O1275       O  0.46930719  0.51187144  0.16123017    -0.75200
O1276       O  0.47165515  0.53424134  0.20470127    -0.75200
O1277       O  0.48919555  0.63165082  0.20180029    -0.75100
O1278       O  0.48484314  0.61006548  0.15709505    -0.75100
O1279       O  0.44432191  0.65124857  0.17974684    -0.75100
O1280       O  0.53033467  0.59588331  0.17934193    -0.75200
Ni1281     Ni  0.46996857  0.52080308  0.18304999     1.25400
Ni1282     Ni  0.48773058  0.62582751  0.17932234     1.25400
C1283       C  0.53680058  0.53825490  0.18147240     0.87100
C1284       C  0.42148920  0.61219784  0.18140284     0.87000
C1285       C  0.47621848  0.55629603  0.15187181     0.87100
C1286       C  0.48120976  0.58535762  0.21063956     0.87200
O1287       O  0.45213349  0.67208673  0.30557736    -0.75100
O1288       O  0.53962053  0.61275619  0.30719181    -0.75100
O1289       O  0.49654575  0.63511830  0.28450576    -0.75200
O1290       O  0.49616210  0.65453974  0.32819932    -0.75200
O1291       O  0.47822016  0.55744042  0.33159452    -0.75100
O1292       O  0.47897304  0.53753176  0.28692466    -0.75100
O1293       O  0.52098986  0.51564051  0.31006312    -0.75100
O1294       O  0.43565948  0.57338333  0.30830681    -0.75200
Ni1295     Ni  0.49676997  0.64713622  0.30629278     1.25400
Ni1296     Ni  0.47789581  0.54252727  0.30936752     1.25400
C1297       C  0.42956684  0.63120331  0.30639281     0.87100
C1298       C  0.54434055  0.55354297  0.30858762     0.87000
C1299       C  0.48778301  0.58392248  0.27831790     0.87100
C1300       C  0.48706098  0.61028762  0.33721238     0.87200
O1301       O  0.20212661  0.83285575  0.18124985    -0.75100
O1302       O  0.29005465  0.77766471  0.18001235    -0.75100
O1303       O  0.24694971  0.81821703  0.15882286    -0.75200
O1304       O  0.24566838  0.79656028  0.20250268    -0.75200
O1305       O  0.23045299  0.69722583  0.19998771    -0.75100
O1306       O  0.22935448  0.72124818  0.15556349    -0.75100
O1307       O  0.27277101  0.68021741  0.17652074    -0.75100
O1308       O  0.18682471  0.73348462  0.17895817    -0.75200
Ni1309     Ni  0.24685182  0.80985965  0.18073810     1.25400
Ni1310     Ni  0.22934745  0.70451557  0.17763422     1.25400
C1311       C  0.18005704  0.79118560  0.18043210     0.87100
C1312       C  0.29561133  0.71917717  0.17794929     0.87000
C1313       C  0.23778448  0.77449765  0.14987541     0.87100
C1314       C  0.23755271  0.74422988  0.20852160     0.87200
O1315       O  0.27323976  0.63743035  0.30370102    -0.75100
O1316       O  0.18437683  0.68694250  0.30152352    -0.75100
O1317       O  0.23267381  0.67162029  0.28083884    -0.75200
O1318       O  0.22445815  0.64810629  0.32432694    -0.75200
O1319       O  0.23874550  0.74645174  0.32855862    -0.75100
O1320       O  0.24651712  0.77126487  0.28414460    -0.75100
O1321       O  0.19928931  0.78544363  0.30538964    -0.75100
O1322       O  0.28632062  0.73722527  0.30743487    -0.75200
Ni1323     Ni  0.22815091  0.65750459  0.30247254     1.25400
Ni1324     Ni  0.24317017  0.76364723  0.30651655     1.25400
C1325       C  0.29433392  0.68004619  0.30609617     0.87100
C1326       C  0.17738576  0.74519729  0.30295365     0.87000
C1327       C  0.24104256  0.72449709  0.27523418     0.87100
C1328       C  0.23063831  0.69216679  0.33376879     0.87200
O1329       O  0.27538662  0.87182313  0.80353728    -0.75100
O1330       O  0.18428429  0.89448616  0.80331306    -0.75100
O1331       O  0.23038560  0.88489995  0.78126230    -0.75200
O1332       O  0.22937459  0.87848622  0.82550053    -0.75200
O1333       O  0.23482673  0.98208262  0.82658878    -0.75100
O1334       O  0.23889297  0.98775497  0.78183208    -0.75100
O1335       O  0.19177072  0.99779802  0.80331068    -0.75100
O1336       O  0.28193624  0.97469184  0.80498105    -0.75200
Ni1337     Ni  0.22955785  0.87878981  0.80337737     1.25400
Ni1338     Ni  0.23703614  0.98933280  0.80421539     1.25400
C1339       C  0.29377606  0.91964824  0.80447615     0.87100
C1340       C  0.17321103  0.95036425  0.80298496     0.87000
C1341       C  0.23544188  0.93678486  0.77421967     0.87100
C1342       C  0.23240977  0.92854688  0.83335371     0.87200
O1343       O  0.20837708  0.56446573  0.67929119    -0.75100
O1344       O  0.29112363  0.99485473  0.67960443    -0.75100
O1345       O  0.24652285  0.02487507  0.65802923    -0.75200
O1346       O  0.24452509  0.99567743  0.70148758    -0.75200
O1347       O  0.23591585  0.89389260  0.69801114    -0.75100
O1348       O  0.23938345  0.92349179  0.65345491    -0.75100
O1349       O  0.28255570  0.89314518  0.67594740    -0.75100
O1350       O  0.19287211  0.91900157  0.67552225    -0.75200
Ni1351     Ni  0.24574047  0.01260459  0.67987524     1.25400
Ni1352     Ni  0.23745946  0.90371415  0.67555241     1.25400
C1353       C  0.18129318  0.97329887  0.67773961     0.87100
C1354       C  0.30166392  0.93875923  0.67808574     0.87000
C1355       C  0.24350393  0.97994965  0.64849971     0.87100
C1356       C  0.23964559  0.94104616  0.70703545     0.87200
O1357       O  0.45194919  0.94396907  0.80560229    -0.75100
O1358       O  0.54270774  0.91216784  0.80769278    -0.75100
O1359       O  0.49997381  0.93013924  0.78434720    -0.75200
O1360       O  0.49472442  0.92950486  0.82860872    -0.75200
O1361       O  0.48675351  0.82641953  0.82888832    -0.75100
O1362       O  0.48909907  0.82815132  0.78396801    -0.75100
O1363       O  0.53270040  0.81023620  0.80685733    -0.75100
O1364       O  0.44335643  0.84146944  0.80599287    -0.75200
Ni1365     Ni  0.49773738  0.93258907  0.80654124     1.25400
Ni1366     Ni  0.48771119  0.82293101  0.80641565     1.25400
C1367       C  0.43257936  0.89732713  0.80562585     0.87100
C1368       C  0.55267574  0.85537457  0.80755901     0.87000
C1369       C  0.49498334  0.87985901  0.77679845     0.87100
C1370       C  0.48954389  0.87860100  0.83605266     0.87200
O1371       O  0.53959865  0.80815000  0.68458550    -0.75100
O1372       O  0.44811594  0.82888148  0.68070227    -0.75100
O1373       O  0.49685138  0.80129239  0.66109302    -0.75200
O1374       O  0.49040046  0.83098817  0.70431403    -0.75200
O1375       O  0.49905786  0.93289073  0.70061128    -0.75100
O1376       O  0.50219741  0.90281589  0.65616150    -0.75100
O1377       O  0.45593031  0.93094927  0.67713692    -0.75100
O1378       O  0.54581928  0.90973765  0.67930944    -0.75200
Ni1379     Ni  0.49354789  0.81373305  0.68282064     1.25400
Ni1380     Ni  0.50103375  0.92279661  0.67815779     1.25400
C1381       C  0.55760961  0.85625694  0.68245125     0.87100
C1382       C  0.43709875  0.88416671  0.67820438     0.87000
C1383       C  0.49987275  0.84617239  0.65134197     0.87100
C1384       C  0.49352096  0.88596196  0.70970490     0.87200
O1385       O  0.71589486  0.87202780  0.68476121    -0.75100
O1386       O  0.80430781  0.81823688  0.68362999    -0.75100
O1387       O  0.76021551  0.85426775  0.66222804    -0.75200
O1388       O  0.76010415  0.84008813  0.70644322    -0.75200
O1389       O  0.74440370  0.74088592  0.70493411    -0.75100
O1390       O  0.74432142  0.75537957  0.66018814    -0.75100
O1391       O  0.78742220  0.71963177  0.68198227    -0.75100
O1392       O  0.70100354  0.77204265  0.68320631    -0.75200
Ni1393     Ni  0.76080926  0.84971923  0.68434442     1.25400
Ni1394     Ni  0.74382322  0.74351003  0.68250753     1.25400
C1395       C  0.69403046  0.82985405  0.68409241     0.87100
C1396       C  0.81010920  0.75930067  0.68272539     0.87000
C1397       C  0.75190865  0.80807001  0.65384940     0.87100
C1398       C  0.75152767  0.78900954  0.71307431     0.87200
O1399       O  0.78726435  0.69601585  0.80725694    -0.75100
O1400       O  0.69660061  0.72857474  0.80859982    -0.75100
O1401       O  0.74223790  0.72452765  0.78620198    -0.75200
O1402       O  0.74143089  0.69551462  0.82981916    -0.75200
O1403       O  0.75111461  0.79643027  0.83415962    -0.75100
O1404       O  0.75229118  0.82573507  0.78964808    -0.75100
O1405       O  0.70720551  0.82909762  0.81256303    -0.75100
O1406       O  0.79629641  0.79727174  0.81127992    -0.75200
Ni1407     Ni  0.74153099  0.70755037  0.80787429     1.25400
Ni1408     Ni  0.75205757  0.81572745  0.81208869     1.25400
C1409       C  0.80664770  0.74221366  0.80880130     0.87100
C1410       C  0.68702474  0.78495678  0.81073897     0.87000
C1411       C  0.74782724  0.77891518  0.78060811     0.87100
C1412       C  0.74569337  0.74061907  0.83919523     0.87200
O1413       O  0.02987523  0.53830034  0.67984208    -0.75100
O1414       O  0.94193029  0.59432050  0.67912304    -0.75100
O1415       O  0.98412257  0.54926228  0.65782700    -0.75200
O1416       O  0.98718032  0.57824654  0.70118663    -0.75200
O1417       O  0.00353933  0.67611099  0.69718802    -0.75100
O1418       O  0.00127952  0.64548664  0.65266673    -0.75100
O1419       O  0.95939466  0.69091594  0.67428948    -0.75100
O1420       O  0.04544459  0.63667726  0.67552961    -0.75200
Ni1421     Ni  0.98512139  0.56162728  0.67961636     1.25400
Ni1422     Ni  0.00287817  0.66585039  0.67471686     1.25400
C1423       C  0.05207440  0.57954716  0.67819244     0.87100
C1424       C  0.93641756  0.65270048  0.67661082     0.87000
C1425       C  0.99254840  0.59104933  0.64795662     0.87100
C1426       C  0.99676971  0.63041294  0.70649771     0.87200
O1427       O  0.96373675  0.74117739  0.80053741    -0.75100
O1428       O  0.05061136  0.68088549  0.80338414    -0.75100
O1429       O  0.00862788  0.70244702  0.77996224    -0.75200
O1430       O  0.00588345  0.72408594  0.82380090    -0.75200
O1431       O  0.98595678  0.62863216  0.82712677    -0.75100
O1432       O  0.99163665  0.60425612  0.78253172    -0.75100
O1433       O  0.03151939  0.58458248  0.80707375    -0.75100
O1434       O  0.94665438  0.64264909  0.80271814    -0.75200
Ni1435     Ni  0.00799795  0.71551307  0.80181607     1.25400
Ni1436     Ni  0.98850032  0.61140618  0.80498019     1.25400
C1437       C  0.94097790  0.70076516  0.80106103     0.87100
C1438       C  0.05509680  0.62221836  0.80588694     0.87000
C1439       C  0.99967065  0.65117175  0.77387441     0.87100
C1440       C  0.99381930  0.68223937  0.83270389     0.87200
O1441       O  0.69615194  0.77636877  0.55814316    -0.75100
O1442       O  0.78659443  0.81312295  0.55804723    -0.75100
O1443       O  0.74115993  0.79275049  0.58013087    -0.75200
O1444       O  0.74189750  0.79212965  0.53601520    -0.75200
O1445       O  0.72944560  0.89338102  0.53537318    -0.75100
O1446       O  0.73194086  0.89540679  0.58036920    -0.75100
O1447       O  0.77485599  0.91477946  0.55699840    -0.75100
O1448       O  0.68618085  0.87856454  0.55852570    -0.75200
Ni1449     Ni  0.74186448  0.78997550  0.55810212     1.25400
Ni1450     Ni  0.73024578  0.89921317  0.55782705     1.25400
C1451       C  0.67627145  0.82220305  0.55848815     0.87100
C1452       C  0.79533635  0.87068390  0.55721541     0.87000
C1453       C  0.73652599  0.84329083  0.58757766     0.87100
C1454       C  0.73550165  0.84177061  0.52835064     0.87200
O1455       O  0.76338205  0.91758975  0.43440117    -0.75100
O1456       O  0.67580434  0.86269035  0.43240908    -0.75100
O1457       O  0.71853675  0.88091145  0.45531321    -0.75200
O1458       O  0.72005494  0.90349307  0.41161785    -0.75200
O1459       O  0.73796057  0.80684719  0.40829062    -0.75100
O1460       O  0.73388522  0.78168566  0.45303347    -0.75100
O1461       O  0.69280294  0.76506488  0.42903633    -0.75100
O1462       O  0.77888736  0.81819928  0.43230871    -0.75200
Ni1463     Ni  0.71881046  0.89454911  0.43353330     1.25400
Ni1464     Ni  0.73636605  0.78927862  0.43053250     1.25400
C1465       C  0.78546624  0.87599014  0.43381879     0.87100
C1466       C  0.67004336  0.80432517  0.43035447     0.87000
C1467       C  0.72574190  0.82849721  0.46150381     0.87100
C1468       C  0.73039777  0.86086480  0.40265629     0.87200
O1469       O  0.94111093  0.88078374  0.43115936    -0.75100
O1470       O  0.03038652  0.92787598  0.43024806    -0.75100
O1471       O  0.98457547  0.91386842  0.45254310    -0.75200
O1472       O  0.98705316  0.89004295  0.40904127    -0.75200
O1473       O  0.97339328  0.98899540  0.40488121    -0.75100
O1474       O  0.97125999  0.01406799  0.44934880    -0.75100
O1475       O  0.01584119  0.02695785  0.42646267    -0.75100
O1476       O  0.92843727  0.98096890  0.42750173    -0.75200
Ni1477     Ni  0.98634451  0.89964246  0.43088675     1.25400
Ni1478     Ni  0.97178400  0.00634091  0.42692448     1.25400
C1479       C  0.92012347  0.92404881  0.42933781     0.87100
C1480       C  0.03759896  0.98572046  0.42792633     0.87000
C1481       C  0.97696211  0.96672290  0.45819981     0.87100
C1482       C  0.98038729  0.93449970  0.39965311     0.87200
O1483       O  0.02550537  0.04240484  0.55201900    -0.75100
O1484       O  0.93567416  0.00587597  0.55541787    -0.75100
O1485       O  0.98346105  0.03119902  0.57561374    -0.75200
O1486       O  0.97805995  0.02106963  0.53174642    -0.75200
O1487       O  0.98783195  0.91861857  0.53271238    -0.75100
O1488       O  0.99558714  0.93018130  0.57722750    -0.75100
O1489       O  0.94741802  0.90442445  0.55738732    -0.75100
O1490       O  0.03589377  0.94019050  0.55277068    -0.75200
Ni1491     Ni  0.98019228  0.02870684  0.55364418     1.25400
Ni1492     Ni  0.99198745  0.91961740  0.55505428     1.25400
C1493       C  0.04542590  0.99680530  0.55207219     0.87100
C1494       C  0.92696244  0.94863273  0.55713439     0.87000
C1495       C  0.99106532  0.98333804  0.58372706     0.87100
C1496       C  0.98266786  0.96909328  0.52493402     0.87200
O1497       O  0.26333606  0.67723478  0.43099936    -0.75100
O1498       O  0.17400908  0.63003152  0.42985147    -0.75100
O1499       O  0.21862831  0.64427533  0.45215791    -0.75200
O1500       O  0.21841497  0.66868726  0.40862951    -0.75200
O1501       O  0.23184312  0.56928515  0.40476495    -0.75100
O1502       O  0.23333939  0.54488282  0.44946224    -0.75100
O1503       O  0.18909692  0.53076927  0.42696190    -0.75100
O1504       O  0.27604211  0.57723090  0.42734613    -0.75200
Ni1505     Ni  0.21800942  0.65859383  0.43048524     1.25400
Ni1506     Ni  0.23296433  0.55194783  0.42696586     1.25400
C1507       C  0.28434029  0.63373490  0.42952826     0.87100
C1508       C  0.16724325  0.57157432  0.42865284     0.87000
C1509       C  0.22674844  0.59201656  0.45812958     0.87100
C1510       C  0.22546078  0.62428191  0.39943180     0.87200
O1511       O  0.19816718  0.51652966  0.55233658    -0.75100
O1512       O  0.28789004  0.55927305  0.55429459    -0.75100
O1513       O  0.24201116  0.52486419  0.57520976    -0.75200
O1514       O  0.24404392  0.54542976  0.53147081    -0.75200
O1515       O  0.22954782  0.64510187  0.53361282    -0.75100
O1516       O  0.23104906  0.62603818  0.57837963    -0.75100
O1517       O  0.27395963  0.65962443  0.55605267    -0.75100
O1518       O  0.18642512  0.61699382  0.55577084    -0.75200
Ni1519     Ni  0.24357108  0.53292067  0.55326932     1.25400
Ni1520     Ni  0.22986046  0.64055031  0.55608776     1.25400
C1521       C  0.17755436  0.56083533  0.55348698     0.87100
C1522       C  0.29536491  0.61750934  0.55514250     0.87000
C1523       C  0.23624763  0.57114035  0.58403194     0.87100
C1524       C  0.23606002  0.59725704  0.52520546     0.87200
O1525       O  0.51925858  0.81996131  0.55437288    -0.75100
O1526       O  0.43019415  0.77233410  0.55704153    -0.75100
O1527       O  0.47530033  0.81254497  0.57743559    -0.75200
O1528       O  0.47407084  0.78439805  0.53397197    -0.75200
O1529       O  0.48691987  0.68427738  0.53762886    -0.75100
O1530       O  0.49116815  0.71498061  0.58180080    -0.75100
O1531       O  0.44532660  0.67425636  0.56181282    -0.75100
O1532       O  0.53243244  0.71990510  0.55776975    -0.75200
Ni1533     Ni  0.47407615  0.80082949  0.55559281     1.25400
Ni1534     Ni  0.48931753  0.69477416  0.55992272     1.25400
C1535       C  0.54046621  0.77665977  0.55542483     0.87100
C1536       C  0.42332651  0.71464845  0.55978800     0.87000
C1537       C  0.48471253  0.77002851  0.58683752     0.87100
C1538       C  0.48081343  0.73067427  0.52853524     0.87200
O1539       O  0.44100713  0.62223800  0.43434124    -0.75100
O1540       O  0.53141064  0.65829996  0.43467367    -0.75100
O1541       O  0.48412575  0.65123377  0.45638397    -0.75200
O1542       O  0.48825283  0.62526772  0.41272520    -0.75200
O1543       O  0.47790993  0.72562865  0.40838444    -0.75100
O1544       O  0.47357895  0.75232199  0.45266183    -0.75100
O1545       O  0.51986725  0.75892326  0.43073356    -0.75100
O1546       O  0.43143974  0.72321286  0.43027919    -0.75200
Ni1547     Ni  0.48662937  0.63561193  0.43466929     1.25400
Ni1548     Ni  0.47538547  0.74355489  0.43034785     1.25400
C1549       C  0.42129471  0.66750363  0.43228568     0.87100
C1550       C  0.54019873  0.71555176  0.43300845     0.87000
C1551       C  0.47775230  0.70526394  0.46179200     0.87100
C1552       C  0.48339878  0.67042029  0.40322915     0.87200
O1553       O  0.26944015  0.95481191  0.93140743    -0.75100
O1554       O  0.17830546  0.92233461  0.92957006    -0.75100
O1555       O  0.22190085  0.93449582  0.95245005    -0.75200
O1556       O  0.22512741  0.94756286  0.90849034    -0.75200
O1557       O  0.23465281  0.84552751  0.90651035    -0.75100
O1558       O  0.23160154  0.83221150  0.95121719    -0.75100
O1559       O  0.18900100  0.82083841  0.92797688    -0.75100
O1560       O  0.27793186  0.85228683  0.92983555    -0.75200
Ni1561     Ni  0.22338557  0.94353585  0.93052009     1.25400
Ni1562     Ni  0.23367494  0.83417085  0.92881405     1.25400
C1563       C  0.28863693  0.90783859  0.93106727     0.87100
C1564       C  0.16876167  0.86533519  0.92849655     0.87000
C1565       C  0.22590241  0.88173974  0.95913484     0.87100
C1566       C  0.22958573  0.89921630  0.90017393     0.87200
O1567       O  0.18601311  0.79430392  0.05347377    -0.75100
O1568       O  0.27717737  0.82201916  0.05375447    -0.75100
O1569       O  0.23226909  0.79340150  0.07522125    -0.75200
O1570       O  0.23139874  0.81870102  0.03180637    -0.75200
O1571       O  0.22318170  0.92089261  0.03473911    -0.75100
O1572       O  0.22396989  0.89485859  0.07923637    -0.75100
O1573       O  0.26812515  0.92372964  0.05714655    -0.75100
O1574       O  0.17841068  0.89648923  0.05684107    -0.75200
Ni1575     Ni  0.23194540  0.80351309  0.05343685     1.25400
Ni1576     Ni  0.22307426  0.91267829  0.05713947     1.25400
C1577       C  0.16729311  0.84155628  0.05494139     0.87100
C1578       C  0.28746635  0.87821152  0.05540172     0.87000
C1579       C  0.22879632  0.83917703  0.08446490     0.87100
C1580       C  0.22788603  0.87321033  0.02601223     0.87200
O1581       O  0.75998296  0.71350432  0.93557962    -0.75100
O1582       O  0.67384957  0.64746028  0.93216762    -0.75100
O1583       O  0.71548345  0.66823550  0.95561985    -0.75200
O1584       O  0.71811057  0.69813327  0.91213281    -0.75200
O1585       O  0.73982222  0.60453628  0.90807091    -0.75100
O1586       O  0.73358165  0.57168139  0.95235482    -0.75100
O1587       O  0.69446363  0.55338670  0.92758916    -0.75100
O1588       O  0.77847908  0.61654301  0.93274141    -0.75200
Ni1589     Ni  0.71600830  0.68515082  0.93397304     1.25400
Ni1590     Ni  0.73710582  0.58301838  0.93002724     1.25400
C1591       C  0.78339076  0.67457932  0.93492513     0.87100
C1592       C  0.67020035  0.58879939  0.92936394     0.87000
C1593       C  0.72463319  0.61617413  0.96137299     0.87100
C1594       C  0.73085947  0.65847661  0.90299259     0.87200
O1595       O  0.69677078  0.50501644  0.05604155    -0.75100
O1596       O  0.78364842  0.56680146  0.05604359    -0.75100
O1597       O  0.74293978  0.51757377  0.07765081    -0.75200
O1598       O  0.73800593  0.54891019  0.03449975    -0.75200
O1599       O  0.71989049  0.64502232  0.03849026    -0.75100
O1600       O  0.72519749  0.61323478  0.08290869    -0.75100
O1601       O  0.76483547  0.66256707  0.06050050    -0.75100
O1602       O  0.67986334  0.60198112  0.06083306    -0.75200
Ni1603     Ni  0.74104992  0.53122125  0.05594638     1.25400
Ni1604     Ni  0.72189429  0.63422950  0.06090814     1.25400
C1605       C  0.67412019  0.54457938  0.05825230     0.87100
C1606       C  0.78813436  0.62582553  0.05779731     0.87000
C1607       C  0.73467326  0.55881652  0.08747775     0.87100
C1608       C  0.72779302  0.60083131  0.02914342     0.87200
O1609       O  0.44422764  0.86342368  0.93335772    -0.75100
O1610       O  0.53658640  0.88007883  0.93334147    -0.75100
O1611       O  0.48979528  0.87719298  0.95530108    -0.75200
O1612       O  0.49128864  0.86124221  0.91141405    -0.75200
O1613       O  0.48724823  0.96450497  0.90852795    -0.75100
O1614       O  0.48364097  0.98044509  0.95321742    -0.75100
O1615       O  0.53054812  0.98342864  0.93144820    -0.75100
O1616       O  0.44036723  0.96662903  0.93039157    -0.75200
Ni1617     Ni  0.49064757  0.86674486  0.93342769     1.25400
Ni1618     Ni  0.48531883  0.97738508  0.93077708     1.25400
C1619       C  0.42714888  0.91323074  0.93203155     0.87100
C1620       C  0.54850186  0.93553446  0.93265233     0.87000
C1621       C  0.48607714  0.93057769  0.96155715     0.87100
C1622       C  0.48991349  0.90954111  0.90267192     0.87200
O1623       O  0.51787981  0.54847196  0.05477602    -0.75100
O1624       O  0.43398564  0.98717076  0.05705893    -0.75100
O1625       O  0.48032501  0.01096174  0.07814138    -0.75200
O1626       O  0.47921708  0.98929999  0.03448974    -0.75200
O1627       O  0.48711666  0.88681821  0.03732867    -0.75100
O1628       O  0.48591595  0.90828601  0.08188606    -0.75100
O1629       O  0.44140667  0.88462868  0.05990106    -0.75100
O1630       O  0.53175999  0.90688882  0.05937520    -0.75200
Ni1631     Ni  0.47950296  0.00267246  0.05622116     1.25400
Ni1632     Ni  0.48674277  0.89292722  0.05974938     1.25400
C1633       C  0.54386265  0.96117608  0.05720957     0.87100
C1634       C  0.42271349  0.93159105  0.05874343     0.87000
C1635       C  0.48348299  0.96404707  0.08722663     0.87100
C1636       C  0.48349997  0.93536964  0.02862268     0.87200
O1637       O  0.93824159  0.68413280  0.93057353    -0.75100
O1638       O  0.02840431  0.72481920  0.92981796    -0.75100
O1639       O  0.98244538  0.71388885  0.95195600    -0.75200
O1640       O  0.98481420  0.68968597  0.90838499    -0.75200
O1641       O  0.97238892  0.78932828  0.90413384    -0.75100
O1642       O  0.97062804  0.81465818  0.94883847    -0.75100
O1643       O  0.01545102  0.82470129  0.92599531    -0.75100
O1644       O  0.92720284  0.78494442  0.92700376    -0.75200
Ni1645     Ni  0.98391797  0.69959008  0.93028334     1.25400
Ni1646     Ni  0.97104734  0.80700781  0.92632251     1.25400
C1647       C  0.91784612  0.72882119  0.92909200     0.87100
C1648       C  0.03655181  0.78235189  0.92781629     0.87000
C1649       C  0.97601918  0.76717638  0.95773194     0.87100
C1650       C  0.97862056  0.73418605  0.89895573     0.87200
O1651       O  0.00952364  0.84468856  0.05416124    -0.75100
O1652       O  0.92043907  0.79341886  0.05450604    -0.75100
O1653       O  0.96413907  0.82538731  0.07599613    -0.75200
O1654       O  0.96526775  0.81792568  0.03203535    -0.75200
O1655       O  0.97962913  0.71772624  0.03302092    -0.75100
O1656       O  0.97951388  0.72603766  0.07792934    -0.75100
O1657       O  0.93665831  0.69440638  0.05603584    -0.75100
O1658       O  0.02310505  0.74411915  0.05517303    -0.75200
Ni1659     Ni  0.96426963  0.82396241  0.05405320     1.25400
Ni1660     Ni  0.98023077  0.71705749  0.05552588     1.25400
C1661       C  0.03090953  0.80162789  0.05523917     0.87100
C1662       C  0.91426776  0.73463902  0.05596145     0.87000
C1663       C  0.97157036  0.77808657  0.08428355     0.87100
C1664       C  0.97237652  0.76711098  0.02517052     0.87200
C1665       C  0.97421601  0.77081278  0.97495782    -0.06800
C1666       C  0.96343111  0.71726982  0.98307456    -0.17900
C1667       C  0.96200381  0.71503758  0.99930378     0.10400
C1668       C  0.97226501  0.76701223  0.00792824    -0.06700
C1669       C  0.98234496  0.82125859  0.99986757    -0.17900
C1670       C  0.98380169  0.82348078  0.98356588     0.10500
S1671       S  0.94527439  0.64571438  0.00821320    -0.32900
S1672       S  0.99988541  0.89317522  0.97458397    -0.32900
H1673       H  0.01859105  0.86100770  0.96360321     0.28500
H1674       H  0.92773919  0.67814946  0.01959772     0.28500
H1675       H  0.95543556  0.67674463  0.97668534     0.19100
H1676       H  0.99019885  0.86168710  0.00633341     0.19100
C1677       C  0.48492066  0.93297015  0.97868161    -0.06800
C1678       C  0.50659589  0.89572283  0.98706093    -0.17900
C1679       C  0.50674518  0.89509500  0.00332094     0.10400
C1680       C  0.48407895  0.93112455  0.01151078    -0.06700
C1681       C  0.46227262  0.96800869  0.00311544    -0.17900
C1682       C  0.46219405  0.96879395  0.98686923     0.10500
S1683       S  0.53764896  0.85065165  0.01283058    -0.32900
S1684       S  0.43154002  0.01392350  0.97736499    -0.32900
H1685       H  0.42592816  0.97026632  0.96555480     0.28500
H1686       H  0.54391814  0.89585487  0.02420562     0.28500
H1687       H  0.52420109  0.86814796  0.98086945     0.19100
H1688       H  0.44471549  0.99576523  0.00928867     0.19100
C1689       C  0.64046747  0.52646126  0.05732106    -0.06800
C1690       C  0.62329809  0.54755346  0.04433654    -0.17900
C1691       C  0.58991636  0.54419067  0.04397008     0.10400
C1692       C  0.57328162  0.51896039  0.05684657    -0.06700
C1693       C  0.59054492  0.49719299  0.06974828    -0.17900
C1694       C  0.62387102  0.50115031  0.07019964     0.10500
S1695       S  0.57006900  0.56932282  0.02651226    -0.32900
S1696       S  0.64342230  0.47660767  0.08785459    -0.32900
H1697       H  0.67301958  0.46149081  0.08111110     0.28500
H1698       H  0.56119615  0.09996334  0.06260350     0.28500
H1699       H  0.63600483  0.56843940  0.03457025     0.19100
H1700       H  0.57788437  0.47675705  0.07957765     0.19100
C1701       C  0.88122858  0.71066708  0.05759045    -0.06800
C1702       C  0.85699573  0.73596748  0.04834007    -0.17900
C1703       C  0.82677416  0.70775798  0.04777306     0.10400
C1704       C  0.82041060  0.65327428  0.05675687    -0.06700
C1705       C  0.84441110  0.62867966  0.06619338    -0.17900
C1706       C  0.87436085  0.65742040  0.06698919     0.10500
S1707       S  0.79783413  0.74182380  0.03478902    -0.32900
S1708       S  0.90218130  0.62554396  0.08087774    -0.32900
H1709       H  0.91510300  0.68383362  0.08498639     0.28500
H1710       H  0.78421538  0.68454308  0.03041272     0.28500
H1711       H  0.86201381  0.77619583  0.04100409     0.19100
H1712       H  0.83935060  0.58836500  0.07350921     0.19100
C1713       C  0.81701804  0.69510286  0.93582462    -0.06800
C1714       C  0.82708395  0.74538298  0.92652755    -0.17900
C1715       C  0.85962501  0.75628505  0.92365600     0.10400
C1716       C  0.88299553  0.71682773  0.93056261    -0.06700
C1717       C  0.87274327  0.66815158  0.94038688    -0.17900
C1718       C  0.84025584  0.65749716  0.94325733     0.10500
S1719       S  0.86924571  0.81858493  0.91018575    -0.32900
S1720       S  0.82995360  0.59568429  0.95677489    -0.32900
H1721       H  0.80133800  0.62328667  0.96197675     0.28500
H1722       H  0.89336256  0.78491676  0.90244089     0.28500
H1723       H  0.80945354  0.77370249  0.92055255     0.19100
H1724       H  0.89020083  0.63896529  0.94621614     0.19100
C1725       C  0.58337403  0.94640678  0.93296002    -0.06800
C1726       C  0.60056095  0.47908654  0.92018013    -0.17900
C1727       C  0.62998589  0.51062248  0.91864537     0.10400
C1728       C  0.63782126  0.55979173  0.92895498    -0.06700
C1729       C  0.61547392  0.57645948  0.94039566    -0.17900
C1730       C  0.58616020  0.54509015  0.94189556     0.10500
S1731       S  0.65557097  0.48856830  0.90266063    -0.32900
S1732       S  0.57461653  0.02908271  0.95815845    -0.32900
H1733       H  0.55497747  0.97714475  0.96141090     0.28500
H1734       H  0.66766443  0.54906585  0.89987850     0.28500
H1735       H  0.59437369  0.44325678  0.91188727     0.19100
H1736       H  0.62130539  0.61288729  0.94859669     0.19100
C1737       C  0.72519060  0.61021799  0.97869875    -0.06800
C1738       C  0.71823265  0.66388513  0.98760159    -0.17900
C1739       C  0.71810338  0.66281514  0.00388795     0.10400
C1740       C  0.72556097  0.60683007  0.01186400    -0.06700
C1741       C  0.73223572  0.55313667  0.00294710    -0.17900
C1742       C  0.73248918  0.55423058  0.98670579     0.10500
S1743       S  0.70848586  0.73473599  0.01358226    -0.32900
S1744       S  0.74252097  0.48226341  0.97713730    -0.32900
H1745       H  0.76977214  0.50809481  0.96985980     0.28500
H1746       H  0.68249756  0.70820809  0.02175749     0.28500
H1747       H  0.71269910  0.70774780  0.98186997     0.19100
H1748       H  0.73785912  0.50921106  0.00862865     0.19100
C1749       C  0.13229181  0.83303160  0.05481785    -0.06800
C1750       C  0.11927302  0.78389776  0.06357294    -0.17900
C1751       C  0.08626495  0.77586507  0.06484234     0.10400
C1752       C  0.06535559  0.81624607  0.05658041    -0.06700
C1753       C  0.07831631  0.86667694  0.04819566    -0.17900
C1754       C  0.11148875  0.87529643  0.04715110     0.10500
S1755       S  0.07250276  0.71482256  0.07783313    -0.32900
S1756       S  0.12573759  0.93864509  0.03503843    -0.32900
H1757       H  0.15200422  0.90539796  0.02906596     0.28500
H1758       H  0.04621509  0.74935818  0.08327381     0.28500
H1759       H  0.13496038  0.75268380  0.06994328     0.19100
H1760       H  0.06264736  0.89770298  0.04178307     0.19100
C1761       C  0.38771796  0.92030775  0.05891776    -0.06800
C1762       C  0.36810112  0.95711796  0.04937554    -0.17900
C1763       C  0.33538407  0.94387420  0.04786295     0.10400
C1764       C  0.32207802  0.89163419  0.05574764    -0.06700
C1765       C  0.34154979  0.85522511  0.06537623    -0.17900
C1766       C  0.37380949  0.87011334  0.06743030     0.10500
S1767       S  0.31128591  0.99221716  0.03522296    -0.32900
S1768       S  0.39521457  0.82603988  0.08194328    -0.32900
H1769       H  0.41329124  0.87733421  0.08703410     0.28500
H1770       H  0.33375733  0.04064850  0.03323958     0.28500
H1771       H  0.37860486  0.99524823  0.04276407     0.19100
H1772       H  0.33116906  0.81683642  0.07196835     0.19100
C1773       C  0.32378927  0.91496212  0.93234961    -0.06800
C1774       C  0.34045364  0.86957794  0.94102616    -0.17900
C1775       C  0.37391222  0.86792663  0.94134846     0.10400
C1776       C  0.39162887  0.91136340  0.93234613    -0.06700
C1777       C  0.37491369  0.95736193  0.92384676    -0.17900
C1778       C  0.34143874  0.96000810  0.92388579     0.10500
S1779       S  0.39227480  0.81074325  0.95389903    -0.32900
S1780       S  0.32267012  0.01860025  0.91195461    -0.32900
H1781       H  0.30567562  0.04470224  0.92447419     0.28500
H1782       H  0.41536295  0.85215683  0.95972020     0.28500
H1783       H  0.32719630  0.83500708  0.94772012     0.19100
H1784       H  0.38804250  0.99143136  0.91694221     0.19100
C1785       C  0.13429542  0.84787238  0.92774361    -0.06800
C1786       C  0.12665950  0.78881037  0.92153676    -0.17900
C1787       C  0.09528354  0.76617660  0.92129944     0.10400
C1788       C  0.07048001  0.80231219  0.92776199    -0.06700
C1789       C  0.07788829  0.86142457  0.93387768    -0.17900
C1790       C  0.10918519  0.88477534  0.93380224     0.10500
S1791       S  0.08847626  0.69225550  0.91195841    -0.32900
S1792       S  0.11527710  0.96049332  0.94223761    -0.32900
H1793       H  0.12921138  0.98534243  0.92864814     0.28500
H1794       H  0.06061980  0.71179769  0.90424338     0.28500
H1795       H  0.14528830  0.75992302  0.91657718     0.19100
H1796       H  0.05905274  0.88989855  0.93882549     0.19100
C1797       C  0.22506791  0.87917413  0.97626260    -0.06800
C1798       C  0.24800066  0.84266598  0.98382835    -0.17900
C1799       C  0.25049790  0.84271981  0.00002891     0.10400
C1800       C  0.22905345  0.87919262  0.00895229    -0.06700
C1801       C  0.20652298  0.91676064  0.00140407    -0.17900
C1802       C  0.20403321  0.91661893  0.98520653     0.10500
S1803       S  0.28240398  0.79880954  0.00908444    -0.32900
S1804       S  0.17239254  0.96253914  0.97677965    -0.32900
H1805       H  0.16523720  0.91860932  0.96523261     0.28500
H1806       H  0.29597936  0.77466718  0.99539696     0.28500
H1807       H  0.26466276  0.81553836  0.97695937     0.19100
H1808       H  0.18984570  0.94430762  0.00817762     0.19100
C1809       C  0.48132350  0.72343446  0.51147882    -0.06800
C1810       C  0.46666133  0.67108312  0.50493300    -0.17900
C1811       C  0.46365477  0.66559038  0.48880638     0.10400
C1812       C  0.47619357  0.71281344  0.47885687    -0.06700
C1813       C  0.49034150  0.76563279  0.48543922    -0.17900
C1814       C  0.49369382  0.77082410  0.50152928     0.10500
S1815       S  0.44188390  0.59899894  0.48172728    -0.32900
S1816       S  0.51571839  0.83741353  0.50850668    -0.32900
H1817       H  0.53046987  0.80506043  0.52078736     0.28500
H1818       H  0.42739213  0.63191808  0.46944590     0.28500
H1819       H  0.45641671  0.63534128  0.51243874     0.19100
H1820       H  0.50012770  0.80197841  0.47799289     0.19100
C1821       C  0.32888297  0.63850919  0.55529597    -0.06800
C1822       C  0.34926318  0.61502707  0.56675891    -0.17900
C1823       C  0.37930266  0.64201163  0.56924415     0.10400
C1824       C  0.38983727  0.69237787  0.55969678    -0.06700
C1825       C  0.36930417  0.71587346  0.54826851    -0.17900
C1826       C  0.33916418  0.68939288  0.54591296     0.10500
S1827       S  0.40216574  0.61257915  0.58540551    -0.32900
S1828       S  0.31522254  0.72157493  0.53043164    -0.32900
H1829       H  0.30017096  0.66491925  0.52665029     0.28500
H1830       H  0.41588299  0.67065611  0.58909270     0.28500
H1831       H  0.34104355  0.57766991  0.57438321     0.19100
H1832       H  0.37727563  0.75352291  0.54067762     0.19100
C1833       C  0.31892468  0.64591133  0.43070940    -0.06800
C1834       C  0.33784213  0.59904831  0.43758026    -0.17900
C1835       C  0.37103253  0.60402174  0.43826182     0.10400
C1836       C  0.38622406  0.65748912  0.43194544    -0.06700
C1837       C  0.36711684  0.70498604  0.42531870    -0.17900
C1838       C  0.33387762  0.69954832  0.42450265     0.10500
S1839       S  0.39207413  0.54139914  0.44780049    -0.32900
S1840       S  0.31233762  0.76078224  0.41462366    -0.32900
H1841       H  0.29233922  0.71988145  0.40641838     0.28500
H1842       H  0.40762704  0.52289634  0.43404179     0.28500
H1843       H  0.32670003  0.55734377  0.44233939     0.19100
H1844       H  0.37814853  0.74636229  0.42030916     0.19100
C1845       C  0.22866491  0.58906561  0.47531011    -0.06800
C1846       C  0.20815783  0.62822978  0.48387614    -0.17900
C1847       C  0.21079126  0.63416594  0.49998174     0.10400
C1848       C  0.23410422  0.59924482  0.50801855    -0.06700
C1849       C  0.25416473  0.55902423  0.49950095    -0.17900
C1850       C  0.25204298  0.55423659  0.48333468     0.10500
S1851       S  0.18248877  0.68413521  0.50963619    -0.32900
S1852       S  0.28101981  0.50580008  0.47366335    -0.32900
H1853       H  0.28851587  0.55169627  0.46247200     0.28500
H1854       H  0.20638144  0.72488620  0.51497490     0.28500
H1855       H  0.18997333  0.65520352  0.47793311     0.19100
H1856       H  0.27215685  0.53169034  0.50547607     0.19100
C1857       C  0.08005583  0.00854427  0.55182317    -0.06800
C1858       C  0.09643405  0.49414636  0.54260097    -0.17900
C1859       C  0.12973782  0.50083873  0.54324634     0.10400
C1860       C  0.14281072  0.54936138  0.55224508    -0.06700
C1861       C  0.12206512  0.59154907  0.55972469    -0.17900
C1862       C  0.09387009  0.05635220  0.56071583     0.10500
S1863       S  0.15482254  0.44868460  0.53210849    -0.32900
S1864       S  0.07097132  0.10724687  0.57312813    -0.32900
H1865       H  0.05199183  0.05879355  0.57936782     0.28500
H1866       H  0.13012797  0.41299780  0.52557643     0.28500
H1867       H  0.08918683  0.93140100  0.53651498     0.19100
H1868       H  0.13169817  0.62933666  0.56658603     0.19100
C1869       C  0.07131447  0.00665089  0.42724840    -0.06800
C1870       C  0.09483330  0.47082267  0.43743625    -0.17900
C1871       C  0.12503633  0.49821312  0.43896738     0.10400
C1872       C  0.13403669  0.54885837  0.42918427    -0.06700
C1873       C  0.11243783  0.57117532  0.41814828    -0.17900
C1874       C  0.08235533  0.54347386  0.41650680     0.10500
S1875       S  0.15065311  0.46804610  0.45403409    -0.32900
S1876       S  0.05754667  0.57223933  0.40094769    -0.32900
H1877       H  0.04152517  0.03356388  0.39869310     0.28500
H1878       H  0.16479883  0.52593913  0.45745921     0.28500
H1879       H  0.08564977  0.94244287  0.44529866     0.19100
H1880       H  0.11961371  0.60844775  0.41025774     0.19100
C1881       C  0.97520949  0.97127743  0.47525374    -0.06800
C1882       C  0.99302881  0.01747837  0.48268908    -0.17900
C1883       C  0.99694588  0.01612256  0.49882428     0.10400
C1884       C  0.98192040  0.96862826  0.50783127    -0.06700
C1885       C  0.96375929  0.92296151  0.50040408    -0.17900
C1886       C  0.95999674  0.92417071  0.48429050     0.10500
S1887       S  0.02150221  0.57098917  0.50614220    -0.32900
S1888       S  0.93450894  0.86561113  0.47594531    -0.32900
H1889       H  0.92247544  0.90615561  0.46447990     0.28500
H1890       H  0.03554697  0.53455709  0.51791879     0.28500
H1891       H  0.00546339  0.05264877  0.47582841     0.19100
H1892       H  0.95163166  0.88726371  0.50723080     0.19100
C1893       C  0.81934453  0.89343741  0.43419798    -0.06800
C1894       C  0.83075713  0.93544797  0.42295386    -0.17900
C1895       C  0.86355365  0.94353879  0.42052833     0.10400
C1896       C  0.88561752  0.90991620  0.42981272    -0.06700
C1897       C  0.87405647  0.86770162  0.44103540    -0.17900
C1898       C  0.84124599  0.86017774  0.44354696     0.10500
S1899       S  0.87557378  0.99421417  0.40468776    -0.32900
S1900       S  0.82864885  0.80936187  0.45924114    -0.32900
H1901       H  0.80067636  0.84312372  0.46267451     0.28500
H1902       H  0.90232429  0.95832006  0.40037009     0.28500
H1903       H  0.81403261  0.95944314  0.41540257     0.19100
H1904       H  0.89061481  0.84196039  0.44827159     0.19100
C1905       C  0.63676572  0.78108335  0.43033254    -0.06800
C1906       C  0.61451630  0.81091374  0.43996977    -0.17900
C1907       C  0.58360995  0.78755690  0.44184081     0.10400
C1908       C  0.57406556  0.73381381  0.43360714    -0.06700
C1909       C  0.59623211  0.70334535  0.42407267    -0.17900
C1910       C  0.62730520  0.72676595  0.42216756     0.10500
S1911       S  0.55774071  0.82705949  0.45540497    -0.32900
S1912       S  0.65281180  0.68753312  0.40837751    -0.32900
H1913       H  0.66689592  0.74273640  0.40252950     0.28500
H1914       H  0.54278031  0.77181644  0.46060783     0.28500
H1915       H  0.62153326  0.85167939  0.44654684     0.19100
H1916       H  0.58879421  0.66306265  0.41741401     0.19100
C1917       C  0.64133772  0.81083601  0.55822078    -0.06800
C1918       C  0.63000089  0.75822127  0.55036422    -0.17900
C1919       C  0.59727401  0.74824962  0.54834702     0.10400
C1920       C  0.57493345  0.79112173  0.55461738    -0.06700
C1921       C  0.58616075  0.84422518  0.56225921    -0.17900
C1922       C  0.61890893  0.85403998  0.56437452     0.10500
S1923       S  0.58577586  0.68079591  0.53720501    -0.32900
S1924       S  0.63005246  0.92047125  0.57593874    -0.32900
H1925       H  0.65452699  0.88898916  0.58393101     0.28500
H1926       H  0.55888697  0.70905736  0.53040941     0.28500
H1927       H  0.64677869  0.72549468  0.54530120     0.19100
H1928       H  0.56927140  0.87648656  0.56742143     0.19100
C1929       C  0.82938386  0.88806031  0.55658988    -0.06800
C1930       C  0.84974046  0.86645704  0.56830788    -0.17900
C1931       C  0.88119653  0.88842203  0.56933980     0.10400
C1932       C  0.89284929  0.93202530  0.55822236    -0.06700
C1933       C  0.87237488  0.95405488  0.54661956    -0.17900
C1934       C  0.84098713  0.93211176  0.54557588     0.10500
S1935       S  0.90479310  0.86124205  0.58548749    -0.32900
S1936       S  0.81739972  0.95995371  0.52948259    -0.32900
H1937       H  0.80024027  0.90402593  0.52756175     0.28500
H1938       H  0.92294109  0.91629373  0.58688071     0.28500
H1939       H  0.84070977  0.83414660  0.57706033     0.19100
H1940       H  0.88134104  0.98642325  0.53786446     0.19100
C1941       C  0.73379244  0.83776974  0.51119678    -0.06800
C1942       C  0.70808360  0.86642817  0.50366091    -0.17900
C1943       C  0.70348100  0.85952899  0.48769022     0.10400
C1944       C  0.72568371  0.82484305  0.47872248    -0.09900
C1945       C  0.75108317  0.79494368  0.48629812    -0.17900
C1946       C  0.75553526  0.80134898  0.50240199     0.10500
S1947       S  0.66805538  0.89451297  0.47955449    -0.32900
S1948       S  0.79031068  0.76666118  0.51136440    -0.32900
H1949       H  0.80337157  0.74011317  0.49783792     0.28500
H1950       H  0.66346473  0.84787542  0.46834597     0.28500
H1951       H  0.69076838  0.89277478  0.51036707     0.19100
H1952       H  0.76826544  0.76895910  0.47946947     0.19100
C1953       C  0.98846649  0.69708495  0.84953932    -0.06800
C1954       C  0.98159399  0.64829050  0.86002588    -0.17900
C1955       C  0.97624758  0.65946725  0.87587890     0.10400
C1956       C  0.97961684  0.72085280  0.88191935    -0.06700
C1957       C  0.98569115  0.76983900  0.87142704    -0.17900
C1958       C  0.98916343  0.75920264  0.85543874     0.10500
S1959       S  0.96345692  0.59337774  0.88747718    -0.32900
S1960       S  0.99264393  0.82802520  0.84335594    -0.32900
H1961       H  0.96859215  0.80887673  0.83306300     0.28500
H1962       H  0.94015971  0.62726939  0.89575162     0.28500
H1963       H  0.97971990  0.60076476  0.85581596     0.19100
H1964       H  0.98754202  0.81730936  0.87569072     0.19100
C1965       C  0.99438716  0.99163348  0.60077124    -0.06800
C1966       C  0.99545321  0.59307951  0.60319916    -0.17900
C1967       C  0.99652191  0.61518058  0.61852576     0.10400
C1968       C  0.99226277  0.57297741  0.63111789    -0.06700
C1969       C  0.98904055  0.95583536  0.62743260    -0.17900
C1970       C  0.99005414  0.94255864  0.61159628     0.10500
S1971       S  0.00281603  0.69772806  0.62098779    -0.32900
S1972       S  0.98401774  0.86236523  0.60613762    -0.32900
H1973       H  0.01407003  0.85810680  0.59877582     0.28500
H1974       H  0.97569661  0.70510431  0.63051159     0.28500
H1975       H  0.99835490  0.62648681  0.59378663     0.19100
H1976       H  0.98508367  0.91699400  0.63535318     0.19100
C1977       C  0.99979576  0.63637801  0.72366186    -0.06800
C1978       C  0.99325929  0.69386830  0.73068659    -0.17900
C1979       C  0.99223253  0.69967523  0.74691851     0.10400
C1980       C  0.99863576  0.64702899  0.75660296    -0.06700
C1981       C  0.00555106  0.58978259  0.74955158    -0.17900
C1982       C  0.00685207  0.58412938  0.73334925     0.10500
S1983       S  0.98070919  0.77499456  0.75436992    -0.32900
S1984       S  0.01948135  0.50942637  0.72591279    -0.32900
H1985       H  0.03845164  0.53495066  0.71388688     0.28500
H1986       H  0.96049181  0.75058749  0.76604314     0.28500
H1987       H  0.98757668  0.73406625  0.72350352     0.19100
H1988       H  0.01112528  0.54948002  0.75671622     0.19100
C1989       C  0.74332882  0.72652719  0.85598689    -0.06800
C1990       C  0.76793875  0.69229534  0.86309613    -0.17900
C1991       C  0.76472216  0.66941539  0.87837685     0.10400
C1992       C  0.73558101  0.67794837  0.88653712    -0.06700
C1993       C  0.71110819  0.71242948  0.87936411    -0.17900
C1994       C  0.71473706  0.73706517  0.86433762     0.10500
S1995       S  0.79910388  0.63279308  0.88703904    -0.32900
S1996       S  0.68126993  0.77847264  0.85613382    -0.32900
H1997       H  0.69965054  0.82296166  0.84798334     0.28500
H1998       H  0.79522393  0.66201059  0.90149618     0.28500
H1999       H  0.78989247  0.68360913  0.85670872     0.19100
H2000       H  0.68885427  0.72043198  0.88556030     0.19100
C2001       C  0.90727134  0.71957598  0.80065516    -0.06800
C2002       C  0.89669089  0.76386995  0.81138640    -0.17900
C2003       C  0.86413233  0.77069113  0.81472586     0.10400
C2004       C  0.84142201  0.73332741  0.80687514    -0.06700
C2005       C  0.85210021  0.69088537  0.79565865    -0.17900
C2006       C  0.88462028  0.68419918  0.79233664     0.10500
S2007       S  0.85355964  0.82461112  0.82992182    -0.32900
S2008       S  0.89575727  0.63009686  0.77724524    -0.32900
H2009       H  0.92444899  0.66039580  0.77310697     0.28500
H2010       H  0.82940862  0.78641480  0.83637844     0.28500
H2011       H  0.91398823  0.79008832  0.81804568     0.19100
H2012       H  0.83494733  0.66370322  0.78915160     0.19100
C2013       C  0.74919586  0.81731181  0.63672712    -0.06800
C2014       C  0.72688774  0.78105556  0.62864095    -0.17900
C2015       C  0.72068348  0.79179050  0.61288675     0.10400
C2016       C  0.73731697  0.83951130  0.60472680    -0.06700
C2017       C  0.75933955  0.87637709  0.61273911    -0.17900
C2018       C  0.76593877  0.86510194  0.62848060     0.10500
S2019       S  0.69077162  0.74342303  0.60389701    -0.32900
S2020       S  0.79778873  0.91022516  0.63689091    -0.32900
H2021       H  0.81071024  0.85955905  0.64526877     0.28500
H2022       H  0.68074955  0.78872864  0.59307715     0.28500
H2023       H  0.71345943  0.74502541  0.63471699     0.19100
H2024       H  0.77299453  0.91152661  0.60645740     0.19100
C2025       C  0.84314670  0.73497443  0.68218503    -0.06800
C2026       C  0.86469745  0.76029021  0.67132892    -0.17900
C2027       C  0.89435298  0.73197109  0.66852265     0.10400
C2028       C  0.90343482  0.67812159  0.67716418    -0.06700
C2029       C  0.88175795  0.65286883  0.68799854    -0.17900
C2030       C  0.85200419  0.68081233  0.69067946     0.10500
S2031       S  0.91852078  0.76453057  0.65303533    -0.32900
S2032       S  0.82687809  0.64637706  0.70556474    -0.32900
H2033       H  0.81326210  0.70313013  0.71042221     0.28500
H2034       H  0.92950354  0.70610379  0.64785650     0.28500
H2035       H  0.85771261  0.80045385  0.66439674     0.19100
H2036       H  0.88851649  0.61249146  0.69490452     0.19100
C2037       C  0.74978939  0.78677777  0.73036868    -0.06800
C2038       C  0.76992327  0.82636680  0.73896375    -0.17900
C2039       C  0.76995061  0.82547253  0.75528771     0.10400
C2040       C  0.74865769  0.78544214  0.76340925    -0.06700
C2041       C  0.72830988  0.74663058  0.75481671    -0.17900
C2042       C  0.72837162  0.74715372  0.73857447     0.10500
S2043       S  0.79913188  0.87321972  0.76495594    -0.32900
S2044       S  0.69946176  0.69779684  0.72921920    -0.32900
H2045       H  0.69056027  0.74314990  0.71820192     0.28500
H2046       H  0.80766980  0.82693543  0.77586265     0.28500
H2047       H  0.78662578  0.85692565  0.73291988     0.19100
H2048       H  0.71168464  0.71584020  0.76085077     0.19100
C2049       C  0.49942695  0.82970471  0.63446994    -0.06800
C2050       C  0.50172215  0.76585098  0.63055491    -0.17900
C2051       C  0.49641746  0.74443248  0.61545102     0.10400
C2052       C  0.48931176  0.78767325  0.60346618    -0.06700
C2053       C  0.48824412  0.85179048  0.60726301    -0.17900
C2054       C  0.49348918  0.87315284  0.62238891     0.10500
S2055       S  0.49787458  0.66112878  0.61263800    -0.32900
S2056       S  0.49164605  0.95626297  0.62533773    -0.32900
H2057       H  0.52212129  0.95880912  0.63214082     0.28500
H2058       H  0.46801275  0.65896579  0.60523505     0.28500
H2059       H  0.50665984  0.73133688  0.63948595     0.19100
H2060       H  0.48360030  0.88638788  0.59831240     0.19100
C2061       C  0.59261642  0.85149518  0.68344308    -0.06800
C2062       C  0.61084204  0.86871239  0.67033661    -0.17900
C2063       C  0.64421573  0.86464387  0.67043737     0.10400
C2064       C  0.65991151  0.84584772  0.68413601    -0.06700
C2065       C  0.64174089  0.83076640  0.69739904    -0.17900
C2066       C  0.60831558  0.83359732  0.69723170     0.10500
S2067       S  0.66541296  0.88006900  0.65253849    -0.32900
S2068       S  0.58722655  0.81427278  0.71496526    -0.32900
H2069       H  0.56166395  0.85556574  0.71256099     0.28500
H2070       H  0.68435597  0.82611467  0.65363528     0.28500
H2071       H  0.59890647  0.88305150  0.65975522     0.19100
H2072       H  0.65365313  0.81564561  0.70789304     0.19100
C2073       C  0.48688614  0.88173285  0.85314948    -0.06800
C2074       C  0.50660131  0.84381541  0.86230531    -0.17900
C2075       C  0.50879576  0.85291975  0.87838069     0.10400
C2076       C  0.49052268  0.90066672  0.88560197    -0.06700
C2077       C  0.47023959  0.93742718  0.87641830    -0.17900
C2078       C  0.46781011  0.92771604  0.86041002     0.10500
S2079       S  0.53675304  0.80428998  0.88876896    -0.32900
S2080       S  0.43884063  0.97363595  0.84992642    -0.32900
H2081       H  0.43105944  0.92630143  0.83933952     0.28500
H2082       H  0.54704673  0.85207994  0.89866992     0.28500
H2083       H  0.52154653  0.80893700  0.85680743     0.19100
H2084       H  0.45532145  0.97257617  0.88182230     0.19100
C2085       C  0.58740649  0.83958224  0.80847672    -0.06800
C2086       C  0.59575648  0.77733303  0.81217545    -0.17900
C2087       C  0.62763027  0.75817398  0.81347881     0.10400
C2088       C  0.65247971  0.80158192  0.81064372    -0.06700
C2089       C  0.64423036  0.86396958  0.80723372    -0.17900
C2090       C  0.61240188  0.88331619  0.80604233     0.10500
S2091       S  0.63456663  0.67844102  0.81944334    -0.32900
S2092       S  0.60608973  0.96411389  0.80101239    -0.32900
H2093       H  0.58382205  0.95133896  0.78942510     0.28500
H2094       H  0.65884835  0.69353709  0.83000185     0.28500
H2095       H  0.57723371  0.74295738  0.81444394     0.19100
H2096       H  0.66284768  0.89825463  0.80502586     0.19100
C2097       C  0.49506109  0.88260035  0.75956282    -0.06800
C2098       C  0.46943259  0.85585338  0.75158047    -0.17900
C2099       C  0.46709043  0.86102253  0.73539382     0.10400
C2100       C  0.49118056  0.89272229  0.72677236    -0.06700
C2101       C  0.51639496  0.92085858  0.73475726    -0.17900
C2102       C  0.51881067  0.91531309  0.75095886     0.10500
S2103       S  0.43241718  0.82700128  0.72638119    -0.32900
S2104       S  0.55426768  0.94582829  0.75982373    -0.32900
H2105       H  0.55753952  0.89464831  0.77005659     0.28500
H2106       H  0.43099147  0.87063269  0.71409920     0.28500
H2107       H  0.45067899  0.83189689  0.75803649     0.19100
H2108       H  0.53544718  0.94370983  0.72826584     0.19100
C2109       C  0.24393175  0.99534329  0.63162772    -0.06800
C2110       C  0.22233148  0.96517895  0.62179029    -0.17900
C2111       C  0.21751769  0.51120066  0.60766300     0.10400
C2112       C  0.23646359  0.55915409  0.60092611    -0.06700
C2113       C  0.26022018  0.58730398  0.60983524    -0.17900
C2114       C  0.26594440  0.56779064  0.62513784     0.10500
S2115       S  0.18531628  0.47420694  0.59733375    -0.32900
S2116       S  0.29931664  0.60360298  0.63483584    -0.32900
H2117       H  0.30279925  0.02928244  0.64474982     0.28500
H2118       H  0.17794000  0.52640638  0.58799799     0.28500
H2119       H  0.20704547  0.92841696  0.62639204     0.19100
H2120       H  0.27562536  0.62242151  0.60455358     0.19100
C2121       C  0.14614860  0.97979711  0.67839734    -0.06800
C2122       C  0.14102847  0.58816846  0.68588226    -0.17900
C2123       C  0.10827289  0.60019031  0.68719986     0.10400
C2124       C  0.08610077  0.56258359  0.67910338    -0.06700
C2125       C  0.09732816  0.51349959  0.66995882    -0.17900
C2126       C  0.12552615  0.94266386  0.66923748     0.10500
S2127       S  0.09628392  0.66302434  0.69982042    -0.32900
S2128       S  0.13967882  0.89380232  0.65365676    -0.32900
H2129       H  0.16427305  0.93481874  0.64894534     0.28500
H2130       H  0.06792444  0.63406433  0.70496479     0.28500
H2131       H  0.15767809  0.61612159  0.69247185     0.19100
H2132       H  0.08058305  0.48602152  0.66329660     0.19100
C2133       C  0.33629760  0.92531070  0.67864878    -0.06800
C2134       C  0.35718434  0.96183133  0.66962090    -0.17900
C2135       C  0.38966601  0.94679524  0.66839892     0.10400
C2136       C  0.40220955  0.89568349  0.67702647    -0.06700
C2137       C  0.38116063  0.85869498  0.68590192    -0.17900
C2138       C  0.34854365  0.87299981  0.68685550     0.10500
S2139       S  0.41322813  0.99250736  0.65484343    -0.32900
S2140       S  0.32413783  0.82427322  0.69935683    -0.32900
H2141       H  0.30463602  0.87323663  0.70469820     0.28500
H2142       H  0.43161865  0.94160687  0.64965796     0.28500
H2143       H  0.34790132  0.00069815  0.66292423     0.19100
H2144       H  0.39032952  0.81978341  0.69263961     0.19100
C2145       C  0.22918444  0.90644739  0.88304300    -0.06800
C2146       C  0.24960748  0.86912707  0.87409383    -0.17900
C2147       C  0.25199893  0.87728144  0.85799460     0.10400
C2148       C  0.23325773  0.92327280  0.85045882    -0.06700
C2149       C  0.21292530  0.96088679  0.85935526    -0.17900
C2150       C  0.21017330  0.95223805  0.87545637     0.10500
S2151       S  0.28043403  0.82913898  0.84780696    -0.32900
S2152       S  0.18035608  0.99827690  0.88538160    -0.32900
H2153       H  0.16998833  0.94921564  0.89517523     0.28500
H2154       H  0.28986939  0.87617721  0.83723831     0.28500
H2155       H  0.26456581  0.83450593  0.87972561     0.19100
H2156       H  0.19792817  0.99520949  0.85362853     0.19100
C2157       C  0.32919862  0.91263402  0.80490216    -0.06800
C2158       C  0.34827136  0.96616192  0.80234983    -0.17900
C2159       C  0.38173895  0.96333526  0.80235685     0.10400
C2160       C  0.39717142  0.90576779  0.80542781    -0.06700
C2161       C  0.37800850  0.85273811  0.80841942    -0.17900
C2162       C  0.34466744  0.85516554  0.80798726     0.10500
S2163       S  0.40286198  0.03469027  0.79790716    -0.32900
S2164       S  0.32373545  0.78301689  0.81180352    -0.32900
H2165       H  0.31131058  0.78038941  0.79666451     0.28500
H2166       H  0.42115943  0.00748277  0.78596147     0.28500
H2167       H  0.33709486  0.01076176  0.79991725     0.19100
H2168       H  0.38900879  0.80812441  0.81101975     0.19100
C2169       C  0.13853319  0.96113054  0.80256669    -0.06800
C2170       C  0.11931474  0.93188244  0.81383077    -0.17900
C2171       C  0.09515657  0.54665475  0.81738290     0.10400
C2172       C  0.08770273  0.59589420  0.80690657    -0.06700
C2173       C  0.11064301  0.61463708  0.79588014    -0.17900
C2174       C  0.14013678  0.58407284  0.79474944     0.10500
S2175       S  0.06870398  0.52257685  0.83295476    -0.32900
S2176       S  0.16699498  0.60855901  0.77939570    -0.32900
H2177       H  0.16682555  0.98831322  0.77374306     0.28500
H2178       H  0.05573721  0.58233477  0.83549375     0.28500
H2179       H  0.12988002  0.89898979  0.82194050     0.19100
H2180       H  0.10499545  0.65136844  0.78760232     0.19100
C2181       C  0.23738595  0.93680420  0.75705623    -0.06800
C2182       C  0.21559475  0.90004455  0.74870174    -0.17900
C2183       C  0.21577732  0.89950487  0.73239623     0.10400
C2184       C  0.23896107  0.93482375  0.72417443    -0.06700
C2185       C  0.26105486  0.97056830  0.73258585    -0.17900
C2186       C  0.26068976  0.97163492  0.74881548     0.10500
S2187       S  0.18452871  0.85663939  0.72285086    -0.32900
S2188       S  0.29139288  0.01648054  0.75825898    -0.32900
H2189       H  0.29667701  0.97247519  0.77019114     0.28500
H2190       H  0.17911519  0.90219937  0.71129654     0.28500
H2191       H  0.19751173  0.87334328  0.75491553     0.19100
H2192       H  0.27902363  0.99778853  0.72642690     0.19100
C2193       C  0.22879564  0.67736056  0.35076899    -0.06800
C2194       C  0.22028364  0.61577181  0.35524818    -0.17900
C2195       C  0.21882837  0.59684252  0.37084289     0.10400
C2196       C  0.22681873  0.63958212  0.38256646    -0.06700
C2197       C  0.23553088  0.70092272  0.37818122    -0.17900
C2198       C  0.23624130  0.72044518  0.36261387     0.10500
S2199       S  0.20525481  0.51844013  0.37493148    -0.32900
S2200       S  0.24684201  0.80081716  0.35891004    -0.32900
H2201       H  0.21872650  0.81317651  0.35053692     0.28500
H2202       H  0.18512827  0.53588826  0.38732446     0.28500
H2203       H  0.21420560  0.58155533  0.34653704     0.19100
H2204       H  0.24171733  0.73455592  0.38702841     0.19100
C2205       C  0.23632511  0.78840913  0.13290594    -0.06800
C2206       C  0.24532091  0.84889101  0.12779173    -0.17900
C2207       C  0.24329036  0.86708568  0.11219836     0.10400
C2208       C  0.23067256  0.82510180  0.10129029    -0.06700
C2209       C  0.22168635  0.76480002  0.10631981    -0.17900
C2210       C  0.22502686  0.74555489  0.12176704     0.10500
S2211       S  0.25888430  0.94299477  0.10695374    -0.32900
S2212       S  0.21494988  0.66545400  0.12615646    -0.32900
H2213       H  0.24470952  0.65283745  0.13303992     0.28500
H2214       H  0.27566895  0.92149726  0.09381287     0.28500
H2215       H  0.25462030  0.88254622  0.13594206     0.19100
H2216       H  0.21247127  0.73153177  0.09804046     0.19100
C2217       C  0.23707397  0.73890503  0.22559005    -0.06800
C2218       C  0.25000599  0.68534658  0.23252352    -0.17900
C2219       C  0.25346403  0.68110938  0.24863451     0.10400
C2220       C  0.24299721  0.73090442  0.25817685    -0.06700
C2221       C  0.23024650  0.78463066  0.25121891    -0.17900
C2222       C  0.22674061  0.78881896  0.23510688     0.10500
S2223       S  0.27281374  0.61210000  0.25618140    -0.32900
S2224       S  0.20709643  0.85752787  0.22754219    -0.32900
H2225       H  0.19061173  0.82573674  0.21578649     0.28500
H2226       H  0.28841392  0.64352050  0.26825990     0.28500
H2227       H  0.25861408  0.64755976  0.22531591     0.19100
H2228       H  0.22144882  0.82227543  0.25841385     0.19100
C2229       C  0.48629020  0.62333916  0.35419877    -0.06800
C2230       C  0.48439657  0.68627979  0.35884132    -0.17900
C2231       C  0.48311008  0.70337876  0.37448808     0.10400
C2232       C  0.48394027  0.65665547  0.38620507    -0.06700
C2233       C  0.48594901  0.59357096  0.38152899    -0.17900
C2234       C  0.48752067  0.57659469  0.36583547     0.10500
S2235       S  0.48087039  0.78578002  0.37846095    -0.32900
S2236       S  0.49267533  0.49487381  0.36159215    -0.32900
H2237       H  0.51683713  0.50520608  0.35040131     0.28500
H2238       H  0.45085230  0.78038139  0.38584030     0.28500
H2239       H  0.48344472  0.72314359  0.35015456     0.19100
H2240       H  0.48685308  0.55660759  0.39017538     0.19100
C2241       C  0.39562580  0.64864932  0.30516765    -0.06800
C2242       C  0.38230515  0.68786219  0.31642143    -0.17900
C2243       C  0.34911191  0.69528808  0.31764918     0.10400
C2244       C  0.32870544  0.66490208  0.30699582    -0.06700
C2245       C  0.34206396  0.62531703  0.29583446    -0.17900
C2246       C  0.37517156  0.61707259  0.29477969     0.10500
S2247       S  0.33413360  0.74044776  0.33375313    -0.32900
S2248       S  0.38997122  0.56607555  0.27977075    -0.32900
H2249       H  0.41847797  0.59947423  0.27714731     0.28500
H2250       H  0.30622908  0.70458531  0.33599077     0.28500
H2251       H  0.39767944  0.70983421  0.32487230     0.19100
H2252       H  0.32674730  0.60213418  0.28758105     0.19100
C2253       C  0.47520205  0.54284916  0.13490928    -0.06800
C2254       C  0.49494370  0.57696351  0.12469160    -0.17900
C2255       C  0.49799150  0.56031330  0.10902020     0.10400
C2256       C  0.48386197  0.97608207  0.10406181    -0.06700
C2257       C  0.46189991  0.94480080  0.11365497    -0.17900
C2258       C  0.45736438  0.96247435  0.12913367     0.10500
S2259       S  0.52474873  0.60642482  0.09707325    -0.32900
S2260       S  0.42575175  0.92316003  0.13971371    -0.32900
H2261       H  0.41489153  0.97753592  0.14717852     0.28500
H2262       H  0.53486227  0.55630762  0.08782615     0.28500
H2263       H  0.50892464  0.61575702  0.12901890     0.19100
H2264       H  0.44693150  0.90845604  0.10883991     0.19100
C2265       C  0.32853900  0.69443891  0.17783512    -0.06800
C2266       C  0.35022760  0.71685163  0.18882055    -0.17900
C2267       C  0.37998316  0.68825061  0.19086343     0.10400
C2268       C  0.38869518  0.63686199  0.18150078    -0.06700
C2269       C  0.36712122  0.61444544  0.17051709    -0.17900
C2270       C  0.33740480  0.64305198  0.16843197     0.10500
S2271       S  0.40521352  0.71762931  0.20609141    -0.32900
S2272       S  0.31260085  0.61344898  0.15306485    -0.32900
H2273       H  0.29967931  0.67195502  0.14897465     0.28500
H2274       H  0.41922776  0.65966657  0.20973790     0.28500
H2275       H  0.34341817  0.75504022  0.19634059     0.19100
H2276       H  0.37403324  0.57620873  0.16302971     0.19100
C2277       C  0.48302391  0.58780534  0.22795918    -0.06800
C2278       C  0.47183424  0.53530059  0.23643489    -0.17900
C2279       C  0.47437401  0.53083302  0.25258283     0.10400
C2280       C  0.48739826  0.58115902  0.26098610    -0.06700
C2281       C  0.49893773  0.63344767  0.25252668    -0.17900
C2282       C  0.49691450  0.63742451  0.23631240     0.10500
S2283       S  0.46081182  0.45902475  0.26147626    -0.32900
S2284       S  0.51292181  0.70679073  0.22719371    -0.32900
H2285       H  0.48367398  0.72244098  0.22018127     0.28500
H2286       H  0.49019290  0.44791210  0.26886541     0.28500
H2287       H  0.46136848  0.49598306  0.23043484     0.19100
H2288       H  0.50944679  0.67259317  0.25858163     0.19100
C2289       C  0.98599487  0.88610415  0.35086327    -0.06800
C2290       C  0.98073719  0.94864926  0.35530690    -0.17900
C2291       C  0.97812211  0.96613790  0.37088211     0.10400
C2292       C  0.98107114  0.92031891  0.38269333    -0.06700
C2293       C  0.98604012  0.85759473  0.37821045    -0.17900
C2294       C  0.98888544  0.84023997  0.36261525     0.10500
S2295       S  0.97136880  0.04776674  0.37464527    -0.32900
S2296       S  0.99764665  0.75942467  0.35869390    -0.32900
H2297       H  0.02210487  0.77322584  0.34789012     0.28500
H2298       H  0.94246163  0.03638064  0.38264277     0.28500
H2299       H  0.97812796  0.98479389  0.34653564     0.19100
H2300       H  0.98844644  0.82124369  0.38693941     0.19100
C2301       C  0.08047856  0.81529988  0.30256120    -0.06800
C2302       C  0.08805846  0.75951247  0.29478687    -0.17900
C2303       C  0.11937948  0.73669862  0.29409156     0.10400
C2304       C  0.14385440  0.76812174  0.30215013    -0.06700
C2305       C  0.13627775  0.82453726  0.30972173    -0.17900
C2306       C  0.10520945  0.84882771  0.30977141     0.10500
S2307       S  0.12649816  0.66920957  0.28216039    -0.32900
S2308       S  0.09816590  0.92000650  0.32024200    -0.32900
H2309       H  0.08720519  0.95222018  0.30700601     0.28500
H2310       H  0.15489186  0.69304058  0.27552579     0.28500
H2311       H  0.06939385  0.73358031  0.28901527     0.19100
H2312       H  0.15466199  0.84988884  0.31587117     0.19100
C2313       C  0.97232057  0.78643223  0.10133166    -0.06800
C2314       C  0.99577958  0.75529724  0.10998867    -0.17900
C2315       C  0.00103627  0.77013382  0.12556384     0.10400
C2316       C  0.98223263  0.81663163  0.13277658    -0.06700
C2317       C  0.95809948  0.84630332  0.12434972    -0.17900
C2318       C  0.95253156  0.83107900  0.10879775     0.10500
S2319       S  0.03260050  0.72914258  0.13554425    -0.32900
S2320       S  0.91853747  0.86562630  0.09907394    -0.32900
H2321       H  0.91060844  0.90908911  0.11065759     0.28500
H2322       H  0.04077840  0.77881354  0.14537308     0.28500
H2323       H  0.01090659  0.72080639  0.10447611     0.19100
H2324       H  0.94266212  0.87930897  0.13021389     0.19100
C2325       C  0.07865169  0.81477914  0.18027969    -0.06800
C2326       C  0.09791926  0.85287845  0.17063770    -0.17900
C2327       C  0.13130575  0.84981733  0.17119078     0.10400
C2328       C  0.14592081  0.80706493  0.18142653    -0.06700
C2329       C  0.12670396  0.76997313  0.19127294    -0.17900
C2330       C  0.09340813  0.77412939  0.19101993     0.10500
S2331       S  0.15385577  0.89726711  0.15767475    -0.32900
S2332       S  0.07131725  0.72828093  0.20507413    -0.32900
H2333       H  0.04974797  0.77651666  0.20864101     0.28500
H2334       H  0.17334126  0.92315551  0.16921838     0.28500
H2335       H  0.08686325  0.88480108  0.16244732     0.19100
H2336       H  0.13782384  0.73708450  0.19921305     0.19100
C2337       C  0.98379336  0.84940764  0.22538606    -0.06800
C2338       C  0.99539232  0.79635123  0.23332200    -0.17900
C2339       C  0.99622702  0.79358281  0.24952548     0.10400
C2340       C  0.98424279  0.84418852  0.25816644    -0.06700
C2341       C  0.97236759  0.89698865  0.25022327    -0.17900
C2342       C  0.97181768  0.90001267  0.23401896     0.10500
S2343       S  0.01478994  0.72629731  0.25833193    -0.32900
S2344       S  0.95407884  0.96815292  0.22518175    -0.32900
H2345       H  0.93705277  0.93437184  0.21395890     0.28500
H2346       H  0.03194367  0.76155957  0.26918525     0.28500
H2347       H  0.00469020  0.75706454  0.22683956     0.19100
H2348       H  0.96289923  0.93612856  0.25671708     0.19100
C2349       C  0.73738884  0.89770713  0.35296993    -0.06800
C2350       C  0.73257064  0.94702984  0.36330588    -0.17900
C2351       C  0.73139693  0.93707700  0.37941145     0.10400
C2352       C  0.73369846  0.87525602  0.38565378    -0.06700
C2353       C  0.73942067  0.82619513  0.37528563    -0.17900
C2354       C  0.74210420  0.83670649  0.35923242     0.10500
S2355       S  0.72776597  0.00637454  0.39108398    -0.32900
S2356       S  0.75291730  0.77016206  0.34758454    -0.32900
H2357       H  0.77437162  0.80396694  0.33806145     0.28500
H2358       H  0.75386595  0.99055710  0.40057807     0.28500
H2359       H  0.72948030  0.99415733  0.35880101     0.19100
H2360       H  0.74222136  0.77890030  0.37971147     0.19100
C2361       C  0.82470694  0.89331187  0.30257746    -0.06800
C2362       C  0.83828111  0.84904483  0.31256218    -0.17900
C2363       C  0.87139503  0.84566381  0.31444110     0.10400
C2364       C  0.89175578  0.88541525  0.30556020    -0.06700
C2365       C  0.87814799  0.92960141  0.29552253    -0.17900
C2366       C  0.84497395  0.93391792  0.29392194     0.10500
S2367       S  0.88587632  0.79277898  0.32921882    -0.32900
S2368       S  0.83000773  0.99117624  0.28032916    -0.32900
H2369       H  0.80340326  0.95532141  0.27597504     0.28500
H2370       H  0.91102027  0.83188658  0.33395648     0.28500
H2371       H  0.82293774  0.81958257  0.31969070     0.19100
H2372       H  0.89343382  0.95963627  0.28851591     0.19100
C2373       C  0.63786478  0.47110540  0.31137255    -0.06800
C2374       C  0.61481385  0.44525480  0.30158617    -0.17900
C2375       C  0.58463163  0.47273633  0.30003874     0.10400
C2376       C  0.57690699  0.52704962  0.30861309    -0.06700
C2377       C  0.59961665  0.55201547  0.31867972    -0.17900
C2378       C  0.62962754  0.52405902  0.32040199     0.10500
S2379       S  0.55767961  0.43815946  0.28626302    -0.32900
S2380       S  0.65576542  0.55683735  0.33482465    -0.32900
H2381       H  0.66974808  0.49942438  0.33906024     0.28500
H2382       H  0.54463256  0.49526739  0.28119318     0.28500
H2383       H  0.62087235  0.40534885  0.29446558     0.19100
H2384       H  0.59349421  0.59216092  0.32570927     0.19100
C2385       C  0.72810041  0.49386857  0.13491202    -0.06800
C2386       C  0.75284033  0.47260966  0.12532942    -0.17900
C2387       C  0.75656569  0.49550948  0.11008718     0.10400
C2388       C  0.73468354  0.54038723  0.10416508    -0.06700
C2389       C  0.71000827  0.56175325  0.11387210    -0.17900
C2390       C  0.70640793  0.53872975  0.12907093     0.10500
S2391       S  0.79735097  0.91792015  0.10095392    -0.32900
S2392       S  0.67333675  0.56759551  0.14047117    -0.32900
H2393       H  0.66866073  0.51185941  0.14893891     0.28500
H2394       H  0.80163502  0.42419927  0.10928405     0.28500
H2395       H  0.77306339  0.91035913  0.13251590     0.19100
H2396       H  0.69273289  0.59496550  0.10943197     0.19100
C2397       C  0.63730077  0.49942556  0.18293782    -0.06800
C2398       C  0.61720811  0.46400777  0.17330905    -0.17900
C2399       C  0.58419475  0.47385571  0.17302791     0.10400
C2400       C  0.57073033  0.52070836  0.18238808    -0.06700
C2401       C  0.59068926  0.55625660  0.19199271    -0.17900
C2402       C  0.62362539  0.54533384  0.19261063     0.10500
S2403       S  0.55897267  0.89679583  0.16129211    -0.32900
S2404       S  0.64646560  0.58959095  0.20640375    -0.32900
H2405       H  0.66559938  0.53883825  0.21108078     0.28500
H2406       H  0.53880039  0.87478301  0.17326306     0.28500
H2407       H  0.62608573  0.90338874  0.16613244     0.19100
H2408       H  0.58041523  0.59234417  0.19924777     0.19100
C2409       C  0.88942475  0.87739922  0.17923170    -0.06800
C2410       C  0.87919721  0.93003182  0.17068174    -0.17900
C2411       C  0.84715107  0.94863108  0.17062184     0.10400
C2412       C  0.82461594  0.91461815  0.17953465    -0.06700
C2413       C  0.83480904  0.86226869  0.18812378    -0.17900
C2414       C  0.86685546  0.84392148  0.18827296     0.10500
S2415       S  0.83640120  0.01379886  0.15832729    -0.32900
S2416       S  0.87753502  0.78003312  0.20095827    -0.32900
H2417       H  0.90519831  0.80930746  0.20664638     0.28500
H2418       H  0.80760436  0.98729099  0.15316946     0.28500
H2419       H  0.89625137  0.95629511  0.16367472     0.19100
H2420       H  0.81768393  0.83616405  0.19513319     0.19100
C2421       C  0.73135998  0.93777648  0.22720177    -0.06800
C2422       C  0.70768739  0.90305306  0.23497270    -0.17900
C2423       C  0.70427744  0.90585718  0.25116170     0.10400
C2424       C  0.72539934  0.94336756  0.25996971    -0.06700
C2425       C  0.74891001  0.97834238  0.25214927    -0.17900
C2426       C  0.75257577  0.97487595  0.23600301     0.10500
S2427       S  0.67142586  0.86285322  0.25974710    -0.32900
S2428       S  0.78608918  0.01602719  0.22745698    -0.32900
H2429       H  0.79231710  0.97096421  0.21599763     0.28500
H2430       H  0.66517085  0.90691018  0.27143081     0.28500
H2431       H  0.69089190  0.87556979  0.22834899     0.19100
H2432       H  0.76558974  0.00623237  0.25870891     0.19100
loop_ 
_geom_bond_atom_site_label_1 
_geom_bond_atom_site_label_2 
_geom_bond_distance 
_geom_bond_site_symmetry_2 
_ccdc_geom_bond_type 
O1           Ni9   1.926       .  S
O1           C11   1.285   1_545  A
O2           Ni9   1.931   1_565  S
O2         C1228   1.285       .  A
O3           Ni9   1.898       .  S
O3           C13   1.275   1_545  A
O4           Ni9   1.898   1_565  S
O4         C1230   1.276       .  A
O5          Ni10   1.943       .  S
O5           C14   1.288       .  A
O6          Ni10   1.944       .  S
O6         C1229   1.287       .  A
O7          Ni10   1.897       .  S
O7           C12   1.276       .  A
O8        Ni1226   1.900       .  S
O8           C11   1.276       .  A
Ni9       Ni1226   2.389   1_545  S
Ni10       O1224   1.895       .  S
Ni10      Ni1225   2.388       .  S
C11        C1181   1.476       .  S
C12        O1218   1.287       .  A
C12        C1196   1.478       .  S
C13        O1222   1.286       .  A
C13        C1169   1.471       .  S
C14        O1220   1.276       .  A
C14        C1205   1.486       .  S
O15         Ni23   1.943       .  S
O15          C25   1.288       .  A
O16         Ni23   1.942       .  S
O16          C26   1.288       .  A
O17         Ni23   1.901       .  S
O17          C27   1.276       .  A
O18         Ni23   1.901       .  S
O18          C28   1.275       .  A
O19         Ni24   1.948       .  S
O19          C28   1.291       .  A
O20         Ni24   1.944       .  S
O20          C27   1.289       .  A
O21       Ni1240   1.889       .  S
O21        C1242   1.273       .  A
O22         Ni24   1.883       .  S
O22          C25   1.272       .  A
Ni23        Ni24   2.385       .  S
Ni24       O1237   1.889       .  S
C25        C1145   1.470       .  S
C26        O1237   1.273       .  A
C26        C2373   1.481       .  S
C27        C1208   1.487       .  S
C28        C1133   1.499       .  S
O29         Ni37   1.938   1_455  S
O29          C39   1.287       .  A
O30         Ni37   1.942       .  S
O30          C40   1.288       .  A
O31         Ni37   1.893       .  S
O31          C41   1.273       .  A
O32         Ni37   1.887       .  S
O32          C42   1.273       .  A
O33         Ni38   1.949       .  S
O33          C42   1.289       .  A
O34         Ni38   1.951       .  S
O34          C41   1.290       .  A
O35         Ni38   1.893       .  S
O35          C40   1.275       .  A
O36         Ni38   1.891   1_455  S
O36          C39   1.275       .  A
Ni37        Ni38   2.386       .  S
C39        C1109   1.482       .  S
C40        C1193   1.486       .  S
C41        C1100   1.481       .  S
C42        C1121   1.482       .  S
O43         Ni51   1.941       .  S
O43          C53   1.288       .  A
O44         Ni51   1.945   1_455  S
O44          C54   1.288       .  A
O45         Ni51   1.896       .  S
O45          C55   1.275       .  A
O46         Ni51   1.898       .  S
O46          C56   1.276       .  A
O47         Ni52   1.945       .  S
O47          C56   1.288       .  A
O48         Ni52   1.943       .  S
O48          C55   1.289       .  A
O49         Ni52   1.893   1_455  S
O49          C54   1.275       .  A
O50         Ni52   1.886       .  S
O50          C53   1.272       .  A
Ni51        Ni52   2.384       .  S
C53        C1148   1.475       .  S
C54        C1085   1.485       .  S
C55        C1124   1.484       .  S
C56        C1073   1.499       .  S
O57         Ni65   1.931       .  S
O57          C67   1.284   1_565  A
O58         Ni65   1.932   1_545  S
O58          C68   1.285       .  A
O59         Ni65   1.892       .  S
O59          C69   1.274   1_565  A
O60         Ni65   1.895   1_545  S
O60          C70   1.277       .  A
O61         Ni66   1.937       .  S
O61          C70   1.286       .  A
O62         Ni66   1.940       .  S
O62          C69   1.288       .  A
O63         Ni66   1.895       .  S
O63          C68   1.275       .  A
O64         Ni66   1.890       .  S
O64          C67   1.275       .  A
Ni65        Ni66   2.385   1_565  S
C67        C1184   1.470   1_545  S
C68        C1052   1.472       .  S
C69        C1037   1.485       .  S
C70        C1061   1.495       .  S
O71         Ni79   1.939       .  S
O71          C81   1.286       .  A
O72         Ni79   1.936       .  S
O72          C82   1.286       .  A
O73         Ni79   1.902       .  S
O73          C83   1.278       .  A
O74         Ni79   1.899       .  S
O74          C84   1.277       .  A
O75         Ni80   1.937       .  S
O75          C84   1.287       .  A
O76         Ni80   1.930       .  S
O76          C83   1.285       .  A
O77         Ni80   1.894       .  S
O77          C82   1.275       .  A
O78         Ni80   1.893       .  S
O78          C81   1.274       .  A
Ni79        Ni80   2.386       .  S
C81        C1025   1.472       .  S
C82        C1160   1.473       .  S
C83        C1064   1.494       .  S
C84        C1013   1.488       .  S
O85         Ni93   1.933       .  S
O85          C95   1.285       .  A
O86         Ni93   1.934       .  S
O86          C96   1.286       .  A
O87         Ni93   1.896       .  S
O87          C97   1.277       .  A
O88         Ni93   1.897       .  S
O88          C98   1.276       .  A
O89         Ni94   1.935       .  S
O89          C98   1.286       .  A
O90         Ni94   1.935       .  S
O90          C97   1.286       .  A
O91         Ni94   1.892       .  S
O91          C96   1.275       .  A
O92         Ni94   1.892       .  S
O92          C95   1.275       .  A
Ni93        Ni94   2.386       .  S
C95        C1112   1.475       .  S
C96        C1049   1.477       .  S
C97         C989   1.493       .  S
C98        C1001   1.477       .  S
O99        Ni107   1.941       .  S
O99         C109   1.287       .  A
O100       Ni107   1.943       .  S
O100        C110   1.288       .  A
O101       Ni107   1.898       .  S
O101        C111   1.275       .  A
O102       Ni107   1.900       .  S
O102        C112   1.277       .  A
O103       Ni108   1.940       .  S
O103        C112   1.287       .  A
O104       Ni108   1.939       .  S
O104        C111   1.287       .  A
O105       Ni108   1.896       .  S
O105        C110   1.275       .  A
O106       Ni108   1.891       .  S
O106        C109   1.274       .  A
Ni107      Ni108   2.384       .  S
C109       C1028   1.476       .  S
C110       C1088   1.490       .  S
C111       C1004   1.478       .  S
C112        C977   1.500       .  S
O113       Ni121   1.933       .  S
O113        C123   1.285       .  A
O114       Ni121   1.934       .  S
O114        C124   1.285       .  A
O115       Ni121   1.903       .  S
O115        C125   1.277       .  A
O116       Ni121   1.899       .  S
O116        C126   1.275       .  A
O117       Ni122   1.944       .  S
O117        C126   1.287       .  A
O118       Ni122   1.938       .  S
O118        C125   1.287       .  A
O119       Ni122   1.903       .  S
O119        C124   1.276       .  A
O120       Ni122   1.896       .  S
O120        C123   1.276       .  A
Ni121      Ni122   2.388       .  S
C123        C941   1.476       .  S
C124        C953   1.474       .  S
C125        C965   1.488       .  S
C126        C932   1.478       .  S
O127      Ni1351   1.935       .  S
O127       C1353   1.287   1_545  A
O128       Ni135   1.943       .  S
O128        C138   1.288       .  A
O129       Ni135   1.893       .  S
O129        C139   1.274       .  A
O130       Ni135   1.895       .  S
O130        C140   1.275       .  A
O131       Ni136   1.945       .  S
O131        C140   1.289       .  A
O132       Ni136   1.948       .  S
O132        C139   1.290       .  A
O133       Ni136   1.897       .  S
O133        C138   1.275       .  A
O134       Ni136   1.887       .  S
O134        C137   1.273       .  A
Ni135      O1343   1.940       .  S
Ni135      Ni136   2.386       .  S
C137       O1343   1.288       .  A
C137        C905   1.479       .  S
C138        C917   1.482       .  S
C139        C893   1.488       .  S
C140        C968   1.485       .  S
O141       Ni149   1.933       .  S
O141        C151   1.286       .  A
O142       Ni149   1.938       .  S
O142        C152   1.286       .  A
O143       Ni149   1.899       .  S
O143        C153   1.275       .  A
O144       Ni149   1.895       .  S
O144        C154   1.274       .  A
O145       Ni150   1.946       .  S
O145        C154   1.288       .  A
O146       Ni150   1.948       .  S
O146        C153   1.289       .  A
O147       Ni150   1.899       .  S
O147        C152   1.278       .  A
O148       Ni150   1.896       .  S
O148        C151   1.275       .  A
Ni149      Ni150   2.385       .  S
C151        C944   1.480       .  S
C152        C869   1.496       .  S
C153        C881   1.484       .  S
C154        C857   1.474       .  S
O155       Ni163   1.941       .  S
O155        C165   1.288       .  A
O156       Ni163   1.943       .  S
O156        C166   1.288       .  A
O157       Ni163   1.890       .  S
O157        C167   1.275       .  A
O158       Ni163   1.894       .  S
O158        C168   1.274       .  A
O159       Ni164   1.949       .  S
O159        C168   1.289       .  A
O160       Ni164   1.946       .  S
O160        C167   1.288       .  A
O161       Ni164   1.897       .  S
O161        C166   1.275       .  A
O162       Ni164   1.890       .  S
O162        C165   1.274       .  A
Ni163      Ni164   2.385       .  S
C165        C845   1.477       .  S
C166        C920   1.486       .  S
C167        C833   1.490       .  S
C168        C884   1.483       .  S
O169       Ni177   1.943       .  S
O169        C179   1.288       .  A
O170       Ni177   1.942       .  S
O170        C180   1.288       .  A
O171       Ni177   1.901       .  S
O171        C181   1.276       .  A
O172       Ni177   1.906       .  S
O172        C182   1.277       .  A
O173       Ni178   1.942       .  S
O173        C182   1.288       .  A
O174       Ni178   1.949       .  S
O174        C181   1.290       .  A
O175       Ni178   1.893       .  S
O175        C180   1.274       .  A
O176       Ni178   1.894       .  S
O176        C179   1.273       .  A
Ni177      Ni178   2.387       .  S
C179        C848   1.475       .  S
C180        C809   1.477       .  S
C181        C797   1.495       .  S
C182        C821   1.488       .  S
O183       Ni191   1.933       .  S
O183        C193   1.285       .  A
O184       Ni191   1.940       .  S
O184        C194   1.288       .  A
O185       Ni191   1.903       .  S
O185        C195   1.278       .  A
O186       Ni191   1.899       .  S
O186        C196   1.275       .  A
O187       Ni192   1.933       .  S
O187        C196   1.285       .  A
O188       Ni192   1.936       .  S
O188        C195   1.286       .  A
O189       Ni192   1.898       .  S
O189        C194   1.276       .  A
O190       Ni192   1.883       .  S
O190        C193   1.274       .  A
Ni191      Ni192   2.387       .  S
C193        C788   1.472       .  S
C194        C872   1.489       .  S
C195        C824   1.485       .  S
C196        C773   1.472       .  S
O197       Ni205   1.942   1_455  S
O197        C207   1.287   1_565  A
O198       Ni205   1.942   1_545  S
O198        C208   1.288       .  A
O199       Ni205   1.885       .  S
O199        C209   1.275   1_565  A
O200       Ni205   1.889       .  S
O200        C210   1.273   1_565  A
O201       Ni206   1.941       .  S
O201        C210   1.289       .  A
O202       Ni206   1.944       .  S
O202        C209   1.287       .  A
O203       Ni206   1.893       .  S
O203        C208   1.274       .  A
O204       Ni206   1.885   1_455  S
O204        C207   1.273       .  A
Ni205      Ni206   2.385   1_565  S
C207        C908   1.473   1_545  S
C208        C812   1.482       .  S
C209        C752   1.494       .  S
C210        C761   1.478       .  S
O211       Ni219   1.921       .  S
O211        C221   1.284       .  A
O212       Ni219   1.925   1_455  S
O212        C222   1.284       .  A
O213       Ni219   1.892       .  S
O213        C223   1.275       .  A
O214       Ni219   1.899       .  S
O214        C224   1.276       .  A
O215       Ni220   1.945       .  S
O215        C224   1.288   1_565  A
O216       Ni220   1.940       .  S
O216        C223   1.288   1_565  A
O217       Ni220   1.901   1_455  S
O217        C222   1.277   1_565  A
O218       Ni220   1.901       .  S
O218        C221   1.276   1_565  A
Ni219      Ni220   2.389   1_545  S
C221        C785   1.469       .  S
C222        C956   1.472   1_545  S
C223        C764   1.481       .  S
C224        C737   1.484       .  S
O225       Ni233   1.941       .  S
O225        C235   1.289       .  A
O226       Ni233   1.946       .  S
O226        C236   1.288       .  A
O227       Ni233   1.898       .  S
O227        C237   1.274       .  A
O228       Ni233   1.896       .  S
O228        C238   1.275       .  A
O229       Ni234   1.947       .  S
O229        C238   1.289       .  A
O230       Ni234   1.954       .  S
O230        C237   1.290       .  A
O231       Ni234   1.889       .  S
O231        C236   1.273       .  A
O232       Ni234   1.883       .  S
O232        C235   1.271       .  A
Ni233      Ni234   2.387       .  S
C235        C701   1.481       .  S
C236        C713   1.474       .  S
C237        C800   1.484       .  S
C238        C725   1.485       .  S
O239       Ni247   1.932       .  S
O239        C249   1.285       .  A
O240       Ni247   1.929       .  S
O240        C250   1.286       .  A
O241       Ni247   1.899       .  S
O241        C251   1.275       .  A
O242       Ni247   1.898       .  S
O242        C252   1.275       .  A
O243       Ni248   1.951       .  S
O243        C252   1.290       .  A
O244       Ni248   1.945       .  S
O244        C251   1.289       .  A
O245       Ni248   1.899       .  S
O245        C250   1.275       .  A
O246       Ni248   1.888       .  S
O246        C249   1.274       .  A
Ni247      Ni248   2.385       .  S
C249        C677   1.466       .  S
C250        C689   1.479       .  S
C251        C728   1.487       .  S
C252       C1136   1.498       .  S
O253       Ni261   1.938       .  S
O253        C263   1.287       .  A
O254       Ni261   1.942   1_455  S
O254        C264   1.288       .  A
O255       Ni261   1.898       .  S
O255        C265   1.275       .  A
O256       Ni261   1.900       .  S
O256        C266   1.277       .  A
O257       Ni262   1.944       .  S
O257        C266   1.288       .  A
O258       Ni262   1.944       .  S
O258        C265   1.289       .  A
O259       Ni262   1.887   1_455  S
O259        C264   1.273       .  A
O260       Ni262   1.885       .  S
O260        C263   1.273       .  A
Ni261      Ni262   2.385       .  S
C263        C680   1.472       .  S
C264        C653   1.477       .  S
C265        C665   1.483       .  S
C266       C1076   1.500       .  S
O267       Ni275   1.932   1_455  S
O267        C277   1.286       .  A
O268       Ni275   1.939       .  S
O268        C278   1.287       .  A
O269       Ni275   1.902       .  S
O269        C279   1.277       .  A
O270       Ni275   1.898       .  S
O270        C280   1.276       .  A
O271       Ni276   1.944       .  S
O271        C280   1.288       .  A
O272       Ni276   1.944       .  S
O272        C279   1.288       .  A
O273       Ni276   1.894       .  S
O273        C278   1.274       .  A
O274       Ni276   1.886   1_455  S
O274        C277   1.273       .  A
Ni275      Ni276   2.387       .  S
C277        C641   1.468       .  S
C278        C716   1.478       .  S
C279        C749   1.495       .  S
C280        C668   1.481       .  S
O281       Ni289   1.934       .  S
O281        C291   1.286       .  A
O282       Ni289   1.938       .  S
O282        C292   1.286       .  A
O283       Ni289   1.899       .  S
O283        C293   1.277       .  A
O284       Ni289   1.901       .  S
O284        C294   1.276       .  A
O285       Ni290   1.944       .  S
O285        C294   1.288       .  A
O286       Ni290   1.941       .  S
O286        C293   1.288       .  A
O287       Ni290   1.894       .  S
O287        C292   1.275       .  A
O288       Ni290   1.889       .  S
O288        C291   1.274       .  A
Ni289      Ni290   2.387       .  S
C291        C617   1.474       .  S
C292        C656   1.473       .  S
C293        C629   1.487       .  S
C294        C980   1.491       .  S
O295       Ni303   1.929   1_565  S
O295        C305   1.284   1_565  A
O296       Ni303   1.935       .  S
O296        C306   1.286       .  A
O297       Ni303   1.903       .  S
O297        C307   1.276       .  A
O298       Ni303   1.904       .  S
O298        C308   1.278       .  A
O299       Ni304   1.936       .  S
O299        C308   1.286       .  A
O300       Ni304   1.942       .  S
O300        C307   1.287       .  A
O301       Ni304   1.892       .  S
O301        C306   1.274       .  A
O302       Ni304   1.887       .  S
O302        C305   1.275       .  A
Ni303      Ni304   2.387       .  S
C305        C644   1.476       .  S
C306        C605   1.470       .  S
C307        C896   1.479       .  S
C308        C632   1.489       .  S
O309       Ni317   1.933       .  S
O309        C319   1.286       .  A
O310       Ni317   1.933       .  S
O310        C320   1.286       .  A
O311       Ni317   1.897       .  S
O311        C321   1.277       .  A
O312       Ni317   1.894       .  S
O312        C322   1.275       .  A
O313       Ni318   1.938       .  S
O313        C322   1.287       .  A
O314       Ni318   1.939       .  S
O314        C321   1.287       .  A
O315       Ni318   1.895       .  S
O315        C320   1.275       .  A
O316       Ni318   1.889       .  S
O316        C319   1.274       .  A
Ni317      Ni318   2.386       .  S
C319        C704   1.473       .  S
C320        C608   1.475       .  S
C321        C836   1.496       .  S
C322        C593   1.479       .  S
O323       Ni331   1.932       .  S
O323        C333   1.285       .  A
O324       Ni331   1.937       .  S
O324        C334   1.286       .  A
O325       Ni331   1.905       .  S
O325        C335   1.278       .  A
O326       Ni331   1.905       .  S
O326        C336   1.279       .  A
O327       Ni332   1.932       .  S
O327        C336   1.285       .  A
O328       Ni332   1.932       .  S
O328        C335   1.285       .  A
O329       Ni332   1.890       .  S
O329        C334   1.275       .  A
O330       Ni332   1.888       .  S
O330        C333   1.275       .  A
Ni331      Ni332   2.384       .  S
C333        C620   1.483       .  S
C334        C692   1.473       .  S
C335        C596   1.480       .  S
C336       C1016   1.497       .  S
O337       Ni345   1.946       .  S
O337        C347   1.288       .  A
O338       Ni345   1.947       .  S
O338        C348   1.288       .  A
O339       Ni345   1.884       .  S
O339        C349   1.273       .  A
O340       Ni345   1.892       .  S
O340        C350   1.273       .  A
O341       Ni346   1.948       .  S
O341        C350   1.289       .  A
O342       Ni346   1.945       .  S
O342        C349   1.288       .  A
O343       Ni346   1.908       .  S
O343        C348   1.278       .  A
O344       Ni346   1.896       .  S
O344        C347   1.275       .  A
Ni345      Ni346   2.385       .  S
C347        C557   1.481       .  S
C348        C569   1.503       .  S
C349        C581   1.478       .  S
C350        C929   1.474       .  S
O351       Ni359   1.938       .  S
O351        C361   1.286       .  A
O352       Ni359   1.937       .  S
O352        C362   1.286       .  A
O353       Ni359   1.888       .  S
O353        C363   1.274       .  A
O354       Ni359   1.895       .  S
O354        C364   1.274       .  A
O355       Ni360   1.932       .  S
O355        C364   1.287       .  A
O356       Ni360   1.940       .  S
O356        C363   1.287       .  A
O357       Ni360   1.897       .  S
O357        C362   1.275       .  A
O358       Ni360   1.897       .  S
O358        C361   1.275       .  A
Ni359      Ni360   2.391       .  S
C361        C533   1.471       .  S
C362        C548   1.474       .  S
C363        C992   1.474       .  S
C364        C584   1.476       .  S
O365       Ni373   1.936       .  S
O365        C375   1.286       .  A
O366       Ni373   1.938       .  S
O366        C376   1.287   1_545  A
O367       Ni373   1.877       .  S
O367        C377   1.272   1_545  A
O368       Ni373   1.886       .  S
O368        C378   1.274       .  A
O369       Ni374   1.944       .  S
O369        C378   1.288   1_565  A
O370       Ni374   1.944       .  S
O370        C377   1.288       .  A
O371       Ni374   1.900       .  S
O371        C376   1.276       .  A
O372       Ni374   1.905       .  S
O372        C375   1.277   1_565  A
Ni373      Ni374   2.387   1_545  S
C375        C497   1.481       .  S
C376        C512   1.481       .  S
C377        C521   1.474       .  S
C378        C776   1.483       .  S
O379       Ni387   1.946       .  S
O379        C389   1.288       .  A
O380       Ni387   1.945       .  S
O380        C390   1.288   1_565  A
O381       Ni387   1.893       .  S
O381        C391   1.275   1_565  A
O382       Ni387   1.893       .  S
O382        C392   1.274   1_565  A
O383       Ni388   1.930       .  S
O383        C392   1.286       .  A
O384       Ni388   1.937       .  S
O384        C391   1.286       .  A
O385       Ni388   1.897       .  S
O385        C390   1.275       .  A
O386       Ni388   1.893       .  S
O386        C389   1.276   1_545  A
Ni387      Ni388   2.386   1_565  S
C389        C473   1.497       .  S
C390        C488   1.478       .  S
C391       C1172   1.479   1_545  S
C392        C524   1.475   1_545  S
O393       Ni401   1.952       .  S
O393        C403   1.291       .  A
O394       Ni401   1.956       .  S
O394        C404   1.290       .  A
O395       Ni401   1.887       .  S
O395        C405   1.273       .  A
O396       Ni401   1.888       .  S
O396        C406   1.273       .  A
O397       Ni402   1.952       .  S
O397        C406   1.290       .  A
O398       Ni402   1.949       .  S
O398        C405   1.290       .  A
O399       Ni402   1.898       .  S
O399        C404   1.274       .  A
O400       Ni402   1.890       .  S
O400        C403   1.274       .  A
Ni401      Ni402   2.386       .  S
C403        C560   1.488       .  S
C404        C509   1.485       .  S
C405        C461   1.485       .  S
C406        C860   1.484       .  S
O407      Ni1631   1.931       .  S
O407       C1633   1.285   1_545  A
O408       Ni415   1.941       .  S
O408        C418   1.288       .  A
O409       Ni415   1.900       .  S
O409        C419   1.275       .  A
O410       Ni415   1.894       .  S
O410        C420   1.275       .  A
O411       Ni416   1.945       .  S
O411        C420   1.289       .  A
O412       Ni416   1.944       .  S
O412        C419   1.288       .  A
O413       Ni416   1.893       .  S
O413        C418   1.274       .  A
O414       Ni416   1.889       .  S
O414        C417   1.273       .  A
Ni415      O1623   1.936       .  S
Ni415      Ni416   2.389       .  S
C417       O1623   1.286       .  A
C417       C1692   1.469       .  S
C418        C545   1.478       .  S
C419       C1040   1.480       .  S
C420        C464   1.485       .  S
O421       Ni429   1.943   1_655  S
O421        C431   1.287       .  A
O422       Ni429   1.950       .  S
O422        C432   1.289       .  A
O423       Ni429   1.904       .  S
O423        C433   1.276   1_455  A
O424       Ni429   1.901       .  S
O424        C434   1.275   1_455  A
O425       Ni430   1.941       .  S
O425        C434   1.289       .  A
O426       Ni430   1.938       .  S
O426        C433   1.287       .  A
O427       Ni430   1.901   1_455  S
O427        C432   1.276       .  A
O428       Ni430   1.897       .  S
O428        C431   1.275       .  A
Ni429      Ni430   2.384   1_455  S
C431        C500   1.476       .  S
C432        C572   1.491       .  S
C433        C449   1.482       .  S
C434        C740   1.498       .  S
O435       Ni443   1.941   1_455  S
O435        C445   1.287       .  A
O436       Ni443   1.945       .  S
O436        C446   1.289       .  A
O437       Ni443   1.899       .  S
O437        C447   1.275       .  A
O438       Ni443   1.893       .  S
O438        C448   1.275       .  A
O439       Ni444   1.949       .  S
O439        C448   1.289       .  A
O440       Ni444   1.949       .  S
O440        C447   1.290       .  A
O441       Ni444   1.897       .  S
O441        C446   1.275       .  A
O442       Ni444   1.893   1_455  S
O442        C445   1.274       .  A
Ni443      Ni444   2.385       .  S
C445        C536   1.477       .  S
C446        C485   1.484       .  S
C447       C1097   1.495       .  S
C448        C452   1.485       .  S
C449        C450   1.409       .  A
C449        C454   1.409   1_655  A
C450        C451   1.404   1_556  A
C450        H459   1.084       .  S
C451        C452   1.412       .  A
C451        S455   1.802       .  S
C452        C453   1.410   1_655  A
C453        C454   1.400   1_554  A
C453        H460   1.084       .  S
C454        S456   1.803       .  S
S455        H458   1.407       .  S
S456        H457   1.407       .  S
C461        C462   1.410       .  A
C461        C466   1.410       .  A
C462        C463   1.400   1_556  A
C462        H471   1.084       .  S
C463        C464   1.411       .  A
C463        S467   1.802       .  S
C464        C465   1.411       .  A
C465        C466   1.402   1_554  A
C465        H472   1.084       .  S
C466        S468   1.801       .  S
S467        H470   1.407       .  S
S468        H469   1.407       .  S
C473        C474   1.411   1_565  A
C473        C478   1.413       .  A
C474        C475   1.398       .  A
C474        H483   1.082       .  S
C475        C476   1.415   1_545  A
C475        S479   1.801       .  S
C476       C1633   1.497       .  S
C476        C477   1.413       .  A
C477        C478   1.405       .  A
C477        H484   1.082       .  S
C478        S480   1.799       .  S
S479       H1698   1.408       .  S
S480        H481   1.408       .  S
H482       S1695   1.405       .  S
C485        C486   1.402       .  A
C485        C490   1.420       .  A
C486        C487   1.401       .  A
C486        H495   1.083       .  S
C487        C488   1.415       .  A
C487        S491   1.804       .  S
C488        C489   1.400       .  A
C489        C490   1.403       .  A
C489        H496   1.084   1_545  S
C490        S492   1.804       .  S
S491        H494   1.407       .  S
S492        H493   1.407       .  S
C497        C498   1.407       .  A
C497        C502   1.411       .  A
C498        C499   1.403       .  A
C498        H507   1.084   1_545  S
C499        C500   1.412       .  A
C499        S503   1.802   1_545  S
C500        C501   1.405       .  A
C501        C502   1.400       .  A
C501        H508   1.085       .  S
C502        S504   1.799       .  S
S503        H506   1.405       .  S
S504        H505   1.407       .  S
C509       C1726   1.402       .  A
C509       C1730   1.416       .  A
C510        C511   1.401       .  A
C510       C1725   1.400       .  A
C510        H519   1.083       .  S
C511        C512   1.418       .  A
C511        S515   1.805       .  S
C512        C513   1.402   1_565  A
C513        C514   1.401   1_545  A
C513        H520   1.084       .  S
C514       C1725   1.416       .  A
C514       S1732   1.804   1_565  S
S515        H518   1.408       .  S
S516       C1730   1.803       .  S
S516        H517   1.406       .  S
C521        C522   1.408   1_565  A
C521        C526   1.409       .  A
C522        C523   1.394   1_556  A
C522        H531   1.084       .  S
C523        C524   1.409   1_545  A
C523        S527   1.804       .  S
C524        C525   1.409       .  A
C525        C526   1.400   1_554  A
C525        H532   1.083       .  S
C526        S528   1.802       .  S
S527        H530   1.407       .  S
S528        H529   1.407       .  S
C533        C534   1.399       .  A
C533        C538   1.414       .  A
C534        C535   1.399       .  A
C534        H543   1.086       .  S
C535        C536   1.417       .  A
C535        S539   1.805       .  S
C536        C537   1.401       .  A
C537        C538   1.401       .  A
C537        H544   1.085       .  S
C538        S540   1.802       .  S
S539        H542   1.407       .  S
S540        H541   1.406       .  S
C545        C546   1.402       .  A
C545        C550   1.417       .  A
C546        C547   1.405       .  A
C546        H555   1.082       .  S
C547        C548   1.414       .  A
C547        S551   1.808       .  S
C548        C549   1.399       .  A
C549        C550   1.399       .  A
C549        H556   1.083       .  S
C550        S552   1.804       .  S
S551        H554   1.407       .  S
S552        H553   1.406       .  S
C557        C558   1.408       .  A
C557        C562   1.408       .  A
C558        C559   1.403       .  A
C558        H567   1.084       .  S
C559        C560   1.411       .  A
C559        S563   1.801       .  S
C560        C561   1.412       .  A
C561        C562   1.402       .  A
C561        H568   1.084       .  S
C562        S564   1.801       .  S
S563        H566   1.407       .  S
S564        H565   1.405       .  S
C569        C570   1.415       .  A
C569        C574   1.417       .  A
C570        C571   1.406       .  A
C570        H579   1.083       .  S
C571        C572   1.411       .  A
C571        S575   1.802       .  S
C572        C573   1.408       .  A
C573        C574   1.403       .  A
C573        H580   1.084       .  S
C574        S576   1.798       .  S
S575        H578   1.407       .  S
S576        H577   1.407       .  S
C581        C582   1.401       .  A
C581        C586   1.417       .  A
C582        C583   1.406       .  A
C582        H591   1.083       .  S
C583        C584   1.418   1_556  A
C583        S587   1.808   1_556  S
C584        C585   1.397   1_554  A
C585        C586   1.393       .  A
C585        H592   1.084   1_556  S
C586        S588   1.803       .  S
S587        H590   1.407   1_554  S
S588        H589   1.407       .  S
C593        C594   1.400       .  A
C593        C598   1.419       .  A
C594        C595   1.400       .  A
C594        H603   1.084       .  S
C595        C596   1.417       .  A
C595        S599   1.803       .  S
C596        C597   1.401       .  A
C597        C598   1.399       .  A
C597        H604   1.083       .  S
C598        S600   1.805       .  S
S599        H602   1.407       .  S
S600        H601   1.407       .  S
C605        C606   1.400       .  A
C605        C610   1.414       .  A
C606        C607   1.400       .  A
C606        H615   1.085       .  S
C607        C608   1.417       .  A
C607        S611   1.805       .  S
C608        C609   1.401       .  A
C609        C610   1.398       .  A
C609        H616   1.084       .  S
C610        S612   1.805       .  S
S611        H614   1.407       .  S
S612        H613   1.407       .  S
C617        C618   1.408       .  A
C617        C622   1.406       .  A
C618        C619   1.397       .  A
C618        H627   1.082       .  S
C619        C620   1.412       .  A
C619        S623   1.800       .  S
C620        C621   1.412       .  A
C621        C622   1.395       .  A
C621        H628   1.083       .  S
C622        S624   1.803       .  S
S623        H626   1.407       .  S
S624        H625   1.407       .  S
C629        C630   1.408       .  A
C629        C634   1.413       .  A
C630        C631   1.400       .  A
C630        H639   1.084       .  S
C631        C632   1.413       .  A
C631        S635   1.799       .  S
C632        C633   1.409       .  A
C633        C634   1.402       .  A
C633        H640   1.083       .  S
C634        S636   1.800   1_545  S
S635        H638   1.407       .  S
S636        H637   1.404   1_565  S
C641        C646   1.406       .  A
C641       C1858   1.406       .  A
C642        C643   1.404       .  A
C642       C1857   1.407   1_565  A
C642       H1867   1.083       .  S
C643        C644   1.412   1_565  A
C643        S647   1.808       .  S
C644        C645   1.406       .  A
C645       C1862   1.391       .  A
C645        H652   1.084       .  S
C646       C1861   1.394       .  A
C646        S648   1.802       .  S
S647        H650   1.407       .  S
S648        H649   1.406       .  S
H651       C1858   1.083       .  S
C653       C1870   1.400       .  A
C653       C1874   1.419       .  A
C654        C655   1.398   1_565  A
C654       C1869   1.400   1_565  A
C654       H1879   1.084       .  S
C655        C656   1.415       .  A
C655        S659   1.804   1_545  S
C656        C657   1.399       .  A
C657        C658   1.401       .  A
C657        H664   1.084       .  S
C658       C1869   1.420       .  A
C658        S660   1.805       .  S
S659        H662   1.406   1_565  S
S660       H1877   1.408       .  S
H661       S1876   1.407       .  S
H663       C1870   1.084       .  S
C665        C666   1.399       .  A
C665        C670   1.420       .  A
C666        C667   1.400       .  A
C666        H675   1.084   1_655  S
C667        C668   1.418       .  A
C667       S1887   1.803   1_655  S
C668        C669   1.399       .  A
C669        C670   1.403       .  A
C669        H676   1.084       .  S
C670        S672   1.802       .  S
S671       C1883   1.804   1_455  S
S671        H674   1.407       .  S
S672        H673   1.404       .  S
C677        C678   1.397       .  A
C677        C682   1.413       .  A
C678        C679   1.396       .  A
C678        H687   1.084       .  S
C679        C680   1.419       .  A
C679        S683   1.805       .  S
C680        C681   1.400       .  A
C681        C682   1.396       .  A
C681        H688   1.082       .  S
C682        S684   1.802       .  S
S683        H686   1.407       .  S
S684        H685   1.407       .  S
C689        C690   1.400       .  A
C689        C694   1.420       .  A
C690        C691   1.394       .  A
C690        H699   1.085       .  S
C691        C692   1.414       .  A
C691        S695   1.803       .  S
C692        C693   1.400       .  A
C693        C694   1.402       .  A
C693        H700   1.085       .  S
C694        S696   1.804       .  S
S695        H698   1.406       .  S
S696        H697   1.407       .  S
C701        C702   1.401       .  A
C701        C706   1.423       .  A
C702        C703   1.398       .  A
C702        H711   1.083       .  S
C703        C704   1.417       .  A
C703        S707   1.804       .  S
C704        C705   1.397       .  A
C705        C706   1.396       .  A
C705        H712   1.084       .  S
C706        S708   1.805       .  S
S707        H710   1.407       .  S
S708        H709   1.407       .  S
C713        C714   1.399       .  A
C713        C718   1.417       .  A
C714        C715   1.402       .  A
C714        H723   1.084       .  S
C715        C716   1.419       .  A
C715        S719   1.802       .  S
C716        C717   1.399       .  A
C717        C718   1.398       .  A
C717        H724   1.084       .  S
C718        S720   1.803       .  S
S719        H722   1.407       .  S
S720        H721   1.403       .  S
C725        C726   1.401       .  A
C725        C730   1.418       .  A
C726        C727   1.403       .  A
C726        H735   1.084       .  S
C727        C728   1.420       .  A
C727        S731   1.804       .  S
C728        C729   1.402       .  A
C729        C730   1.405       .  A
C729        H736   1.082       .  S
C730        S732   1.809       .  S
S731        H734   1.407       .  S
S732        H733   1.407       .  S
C737        C738   1.399       .  A
C737        C742   1.415       .  A
C738        C739   1.408   1_655  A
C738        H747   1.080   1_645  S
C739        C740   1.428   1_455  A
C739        S743   1.810   1_545  S
C740        C741   1.404       .  A
C741        C742   1.399       .  A
C741        H748   1.083       .  S
C742        S744   1.800       .  S
S743        H746   1.407       .  S
S744        H745   1.404       .  S
C749        C754   1.410       .  A
C749       C1966   1.412       .  A
C750        C751   1.402       .  A
C750       C1965   1.411   1_545  A
C750        H759   1.083   1_655  S
C751        C752   1.414       .  A
C751        S755   1.800   1_655  S
C752       C1969   1.413   1_545  A
C753        C754   1.401       .  A
C753       C1968   1.415       .  A
C753        H760   1.082       .  S
C754        S756   1.799       .  S
S755        H758   1.405   1_455  S
S756        H757   1.407   1_655  S
C761        C762   1.398       .  A
C761        C766   1.421   1_545  A
C762        C763   1.398       .  A
C762        H771   1.083       .  S
C763        C764   1.420       .  A
C763        S767   1.804       .  S
C764        C765   1.400   1_545  A
C765        C766   1.400       .  A
C765        H772   1.083       .  S
C766        S768   1.805   1_655  S
S767        H770   1.408       .  S
S768        H769   1.405       .  S
C773        C774   1.408       .  A
C773        C778   1.404       .  A
C774        C775   1.403       .  A
C774        H783   1.084       .  S
C775        C776   1.412       .  A
C775        S779   1.802   1_545  S
C776        C777   1.411       .  A
C777        C778   1.395       .  A
C777        H784   1.084       .  S
C778        S780   1.801       .  S
S779        H782   1.407       .  S
S780        H781   1.404       .  S
C785        C786   1.396       .  A
C785        C790   1.417       .  A
C786        C787   1.388       .  A
C786        H795   1.081       .  S
C787        C788   1.416       .  A
C787        S791   1.806       .  S
C788        C789   1.402       .  A
C789        C790   1.402       .  A
C789        H796   1.083       .  S
C790        S792   1.803   1_545  S
S791        H794   1.407       .  S
S792        H793   1.406       .  S
C797        C798   1.403       .  A
C797        C802   1.424       .  A
C798        C799   1.404       .  A
C798        H807   1.083       .  S
C799        C800   1.418       .  A
C799        S803   1.803       .  S
C800        C801   1.399       .  A
C801        C802   1.405       .  A
C801        H808   1.083       .  S
C802        S804   1.803       .  S
S803        H806   1.404       .  S
S804        H805   1.408       .  S
C809        C810   1.399       .  A
C809        C814   1.418       .  A
C810        C811   1.401       .  A
C810        H819   1.084       .  S
C811        C812   1.420       .  A
C811        S815   1.803       .  S
C812        C813   1.400       .  A
C813        C814   1.400       .  A
C813        H820   1.083       .  S
C814        S816   1.804       .  S
S815        H818   1.407       .  S
S816        H817   1.407       .  S
C821        C822   1.409       .  A
C821        C826   1.413       .  A
C822        C823   1.405       .  A
C822        H831   1.084       .  S
C823        C824   1.414       .  A
C823        S827   1.803       .  S
C824        C825   1.405       .  A
C825        C826   1.399       .  A
C825        H832   1.084       .  S
C826        S828   1.797       .  S
S827        H830   1.408       .  S
S828        H829   1.399       .  S
C833        C834   1.411       .  A
C833        C838   1.409       .  A
C834        C835   1.400       .  A
C834        H843   1.084       .  S
C835        C836   1.415       .  A
C835        S839   1.801       .  S
C836        C837   1.415       .  A
C837        C838   1.401       .  A
C837        H844   1.083       .  S
C838        S840   1.798       .  S
S839        H842   1.407       .  S
S840        H841   1.407       .  S
C845        C846   1.410       .  A
C845        C850   1.408       .  A
C846        C847   1.400       .  A
C846        H855   1.084       .  S
C847        C848   1.408       .  A
C847        S851   1.804       .  S
C848        C849   1.407       .  A
C849        C850   1.399       .  A
C849        H856   1.077       .  S
C850        S852   1.803       .  S
S851        H854   1.406       .  S
S852        H853   1.408       .  S
C857        C858   1.399       .  A
C857        C862   1.414       .  A
C858        C859   1.401       .  A
C858        H867   1.084       .  S
C859        C860   1.421       .  A
C859        S863   1.805       .  S
C860        C861   1.403       .  A
C861        C862   1.404       .  A
C861        H868   1.084       .  S
C862        S864   1.804       .  S
S863        H866   1.407       .  S
S864        H865   1.406       .  S
C869        C870   1.413       .  A
C869        C874   1.417       .  A
C870        C871   1.399       .  A
C870        H879   1.083       .  S
C871        C872   1.410       .  A
C871        S875   1.801       .  S
C872        C873   1.409       .  A
C873        C874   1.402       .  A
C873        H880   1.083       .  S
C874        S876   1.800       .  S
S875        H878   1.408       .  S
S876        H877   1.402       .  S
C881        C882   1.401       .  A
C881        C886   1.418       .  A
C882        C883   1.404       .  A
C882        H891   1.083       .  S
C883        C884   1.419       .  A
C883        S887   1.804       .  S
C884        C885   1.400       .  A
C885        C886   1.402       .  A
C885        H892   1.083       .  S
C886        S888   1.801       .  S
S887        H890   1.407       .  S
S888        H889   1.408       .  S
C893        C894   1.404       .  A
C893       C2114   1.422       .  A
C894       C2111   1.402       .  A
C894        H903   1.083       .  S
C895        C896   1.416   1_565  A
C895       C2110   1.403       .  A
C895        S899   1.803       .  S
C896        C897   1.399       .  A
C897        C898   1.402       .  A
C897        H904   1.085       .  S
C898       C2109   1.421   1_545  A
C898        S900   1.804       .  S
S899        H902   1.406       .  S
S900       H2117   1.407       .  S
H901       S2116   1.408       .  S
C905        C910   1.421       .  A
C905       C2122   1.400       .  A
C906        C907   1.397       .  A
C906       C2121   1.400   1_545  A
C906        H915   1.083       .  S
C907        C908   1.417   1_545  A
C907        S911   1.805       .  S
C908        C909   1.399       .  A
C909       C2126   1.400       .  A
C909        H916   1.084       .  S
C910       C2125   1.398       .  A
C910        S912   1.804       .  S
S911        H914   1.405       .  S
S912        H913   1.406       .  S
C917        C918   1.399       .  A
C917        C922   1.419       .  A
C918        C919   1.401       .  A
C918        H927   1.084       .  S
C919        C920   1.421       .  A
C919        S923   1.802       .  S
C920        C921   1.401       .  A
C921        C922   1.402       .  A
C921        H928   1.083       .  S
C922        S924   1.804       .  S
S923        H926   1.407       .  S
S924        H925   1.407       .  S
C929        C930   1.404       .  A
C929        C934   1.413       .  A
C930        C931   1.405       .  A
C930        H939   1.085       .  S
C931        C932   1.415       .  A
C931        S935   1.801       .  S
C932        C933   1.403       .  A
C933        C934   1.400       .  A
C933        H940   1.085       .  S
C934        S936   1.805       .  S
S935        H938   1.404       .  S
S936        H937   1.406       .  S
C941        C942   1.406       .  A
C941        C946   1.410       .  A
C942        C943   1.397       .  A
C942        H951   1.083       .  S
C943        C944   1.411       .  A
C943        S947   1.802       .  S
C944        C945   1.409       .  A
C945        C946   1.400       .  A
C945        H952   1.084       .  S
C946        S948   1.800       .  S
S947        H950   1.408       .  S
S948        H949   1.406       .  S
C953        C954   1.399       .  A
C953       C2174   1.415       .  A
C954       C2171   1.401       .  A
C954        H963   1.085       .  S
C955        C956   1.415       .  A
C955       C2170   1.397       .  A
C955        S959   1.802       .  S
C956        C957   1.402   1_565  A
C957        C958   1.399       .  A
C957        H964   1.084       .  S
C958       C2169   1.413   1_545  A
C958        S960   1.804       .  S
S959        H962   1.405       .  S
S960       H2177   1.407   1_545  S
H961       S2176   1.406       .  S
C965        C966   1.410       .  A
C965        C970   1.413       .  A
C966        C967   1.402       .  A
C966        H975   1.084       .  S
C967        C968   1.411       .  A
C967        S971   1.802       .  S
C968        C969   1.408       .  A
C969        C970   1.401       .  A
C969        H976   1.084       .  S
C970        S972   1.801       .  S
S971        H974   1.408       .  S
S972        H973   1.405       .  S
C977        C978   1.414       .  A
C977        C982   1.416       .  A
C978        C979   1.401       .  A
C978        H987   1.083       .  S
C979        C980   1.410       .  A
C979        S983   1.802       .  S
C980        C981   1.410       .  A
C981        C982   1.403       .  A
C981        H988   1.084       .  S
C982        S984   1.801       .  S
S983        H986   1.408       .  S
S984        H985   1.408       .  S
C989        C990   1.415       .  A
C989        C994   1.416       .  A
C990        C991   1.399       .  A
C990        H999   1.083       .  S
C991        C992   1.406       .  A
C991        S995   1.804       .  S
C992        C993   1.405       .  A
C993        C994   1.399       .  A
C993       H1000   1.084       .  S
C994        S996   1.800       .  S
S995        H998   1.407       .  S
S996        H997   1.408       .  S
C1001      C1002   1.401       .  A
C1001      C1006   1.417       .  A
C1002      C1003   1.401       .  A
C1002      H1011   1.084       .  S
C1003      C1004   1.418       .  A
C1003      S1007   1.804       .  S
C1004      C1005   1.400       .  A
C1005      C1006   1.399       .  A
C1005      H1012   1.083       .  S
C1006      S1008   1.804       .  S
S1007      H1010   1.406       .  S
S1008      H1009   1.407       .  S
C1013      C1014   1.407       .  A
C1013      C1018   1.412       .  A
C1014      C1015   1.400       .  A
C1014      H1023   1.084       .  S
C1015      C1016   1.417       .  A
C1015      S1019   1.801       .  S
C1016      C1017   1.413       .  A
C1017      C1018   1.402       .  A
C1017      H1024   1.083       .  S
C1018      S1020   1.802   1_545  S
S1019      H1022   1.408       .  S
S1020      H1021   1.408   1_565  S
C1025      C1026   1.398       .  A
C1025      C1030   1.416       .  A
C1026      C1027   1.399       .  A
C1026      H1035   1.084       .  S
C1027      C1028   1.418       .  A
C1027      S1031   1.805       .  S
C1028      C1029   1.400       .  A
C1029      C1030   1.400       .  A
C1029      H1036   1.083       .  S
C1030      S1032   1.804       .  S
S1031      H1034   1.407       .  S
S1032      H1033   1.406       .  S
C1037      C1038   1.403       .  A
C1037      C2258   1.422   1_545  A
C1038      C1039   1.399       .  A
C1038      H1047   1.085       .  S
C1039      C2256   1.414   1_545  A
C1039      S1043   1.804       .  S
C1040      C1041   1.397       .  A
C1040      C2255   1.417       .  A
C1041      C1042   1.400       .  A
C1041      H1048   1.084       .  S
C1042      C2253   1.424       .  A
C1042      S1044   1.804       .  S
S1043      H1046   1.407       .  S
S1044      H1045   1.408       .  S
C1049      C1050   1.402       .  A
C1049      C1054   1.419       .  A
C1050      C1051   1.399       .  A
C1050      H1059   1.083       .  S
C1051      C1052   1.416       .  A
C1051      S1055   1.805       .  S
C1052      C1053   1.399       .  A
C1053      C1054   1.398       .  A
C1053      H1060   1.083       .  S
C1054      S1056   1.805       .  S
S1055      H1058   1.407       .  S
S1056      H1057   1.408       .  S
C1061      C1062   1.411       .  A
C1061      C1066   1.415       .  A
C1062      C1063   1.397       .  A
C1062      H1071   1.084   1_545  S
C1063      C1064   1.414       .  A
C1063      S1067   1.801   1_545  S
C1064      C1065   1.412       .  A
C1065      C1066   1.401       .  A
C1065      H1072   1.084       .  S
C1066      S1068   1.800       .  S
S1067      H1070   1.407       .  S
S1068      H1069   1.407       .  S
C1073      C1074   1.414       .  A
C1073      C1078   1.413       .  A
C1074      C1075   1.402       .  A
C1074      H1083   1.083       .  S
C1075      C1076   1.414       .  A
C1075      S1079   1.800       .  S
C1076      C1077   1.414       .  A
C1077      C1078   1.403       .  A
C1077      H1084   1.083       .  S
C1078      S1080   1.801       .  S
S1079      H1082   1.408       .  S
S1080      H1081   1.408   1_655  S
C1085      C1086   1.409       .  A
C1085      C1090   1.409       .  A
C1086      C1087   1.400       .  A
C1086      H1095   1.083       .  S
C1087      C1088   1.412       .  A
C1087      S1091   1.802       .  S
C1088      C1089   1.412       .  A
C1089      C1090   1.402       .  A
C1089      H1096   1.084       .  S
C1090      S1092   1.799       .  S
S1091      H1094   1.408       .  S
S1092      H1093   1.407       .  S
C1097      C1098   1.403   1_655  A
C1097      C1102   1.425       .  A
C1098      C1099   1.402       .  A
C1098      H1107   1.083       .  S
C1099      C1100   1.417   1_455  A
C1099      S1103   1.804       .  S
C1100      C1101   1.398       .  A
C1101      C1102   1.408       .  A
C1101      H1108   1.082       .  S
C1102      S1104   1.810       .  S
S1103      H1106   1.406       .  S
S1104      H1105   1.407       .  S
C1109      C1110   1.410       .  A
C1109      C1114   1.411       .  A
C1110      C1111   1.398       .  A
C1110      H1119   1.083       .  S
C1111      C1112   1.407       .  A
C1111      S1115   1.800       .  S
C1112      C1113   1.407       .  A
C1113      C1114   1.399       .  A
C1113      H1120   1.084       .  S
C1114      S1116   1.801       .  S
S1115      H1118   1.407       .  S
S1116      H1117   1.406       .  S
C1121      C1122   1.408       .  A
C1121      C1126   1.410       .  A
C1122      C1123   1.397       .  A
C1122      H1131   1.083   1_655  S
C1123      C1124   1.409       .  A
C1123      S1127   1.800   1_655  S
C1124      C1125   1.411       .  A
C1125      C1126   1.404       .  A
C1125      H1132   1.084       .  S
C1126      S1128   1.802       .  S
S1127      H1130   1.405       .  S
S1128      H1129   1.407       .  S
C1133      C1134   1.401       .  A
C1133      C1138   1.426       .  A
C1134      C1135   1.402       .  A
C1134      H1143   1.085       .  S
C1135      C1136   1.425       .  A
C1135      S1139   1.803       .  S
C1136      C1137   1.402       .  A
C1137      C1138   1.405       .  A
C1137      H1144   1.085       .  S
C1138      S1140   1.803       .  S
S1139      H1142   1.407       .  S
S1140      H1141   1.408       .  S
C1145      C1146   1.398       .  A
C1145      C1150   1.416       .  A
C1146      C1147   1.399       .  A
C1146      H1155   1.084       .  S
C1147      C1148   1.419       .  A
C1147      S1151   1.805       .  S
C1148      C1149   1.399       .  A
C1149      C1150   1.398       .  A
C1149      H1156   1.084       .  S
C1150      S1152   1.802       .  S
S1151      H1154   1.407       .  S
S1152      H1153   1.406       .  S
C1157      C1242   1.477       .  S
C1157      C1158   1.400       .  A
C1157      C1162   1.420   1_565  A
C1158      C1159   1.398       .  A
C1158      H1167   1.084       .  S
C1159      C1160   1.416   1_565  A
C1159      S1163   1.803       .  S
C1160      C1161   1.399       .  A
C1161      C1162   1.400       .  A
C1161      H1168   1.085       .  S
C1162      S1164   1.805       .  S
S1163      H1166   1.406       .  S
S1164      H1165   1.408       .  S
C1169      C1170   1.399       .  A
C1169      C1174   1.414   1_565  A
C1170      C1171   1.402       .  A
C1170      H2395   1.083       .  S
C1171      C1172   1.417       .  A
C1171      S2391   1.810       .  S
C1172      C1173   1.402   1_565  A
C1173      C1174   1.401       .  A
C1173      H1180   1.084       .  S
C1174      S1176   1.804       .  S
S1175      C2387   1.810       .  S
S1175      H2394   1.407       .  S
S1176      H1177   1.407       .  S
H1178      S2391   1.407       .  S
H1179      C2386   1.083       .  S
C1181      C1182   1.409       .  A
C1181      C1186   1.411   1_565  A
C1182      C1183   1.400       .  A
C1182      H2407   1.084       .  S
C1183      C1184   1.408       .  A
C1183      S2403   1.800       .  S
C1184      C1185   1.404   1_565  A
C1185      C1186   1.395       .  A
C1185      H1192   1.084       .  S
C1186      S1188   1.803       .  S
S1187      C2399   1.800       .  S
S1187      H1190   1.406       .  S
S1188      H1189   1.408       .  S
H1191      C2398   1.083       .  S
C1193      C1194   1.411       .  A
C1193      C1198   1.413       .  A
C1194      C1195   1.401       .  A
C1194      H1203   1.085       .  S
C1195      C1196   1.410       .  A
C1195      S1199   1.804       .  S
C1196      C1197   1.406       .  A
C1197      C1198   1.400       .  A
C1197      H1204   1.085       .  S
C1198      S1200   1.801       .  S
S1199      H1202   1.406       .  S
S1200      H1201   1.408       .  S
C1205      C1206   1.402       .  A
C1205      C1210   1.419       .  A
C1206      C1207   1.403       .  A
C1206      H1215   1.083       .  S
C1207      C1208   1.420       .  A
C1207      S1211   1.804       .  S
C1208      C1209   1.401       .  A
C1209      C1210   1.401       .  A
C1209      H1216   1.082       .  S
C1210      S1212   1.804       .  S
S1211      H1214   1.407       .  S
S1212      H1213   1.408       .  S
O1217     Ni1225   1.932       .  S
O1217      C1227   1.286       .  A
O1218     Ni1225   1.939       .  S
O1219     Ni1225   1.896       .  S
O1219      C1229   1.274       .  A
O1220     Ni1225   1.898       .  S
O1221     Ni1226   1.937       .  S
O1221      C1230   1.286       .  A
O1222     Ni1226   1.935       .  S
O1223     Ni1226   1.895       .  S
O1223      C1228   1.276       .  A
O1224      C1227   1.276       .  A
C1227      C2397   1.478       .  S
C1228      C2412   1.474       .  S
C1229      C2385   1.474       .  S
C1230      C2421   1.480       .  S
O1231     Ni1239   1.940       .  S
O1231      C1241   1.288       .  A
O1232     Ni1239   1.938       .  S
O1232      C1242   1.287       .  A
O1233     Ni1239   1.896       .  S
O1233      C1243   1.275       .  A
O1234     Ni1239   1.895       .  S
O1234      C1244   1.274       .  A
O1235     Ni1240   1.947       .  S
O1235      C1244   1.290       .  A
O1236     Ni1240   1.944       .  S
O1236      C1243   1.288       .  A
O1238     Ni1240   1.886       .  S
O1238      C1241   1.273       .  A
Ni1239    Ni1240   2.386       .  S
C1241      C2361   1.472       .  S
C1243      C2424   1.483       .  S
C1244      C2349   1.493       .  S
O1245     Ni1253   1.933   1_455  S
O1245      C1255   1.286       .  A
O1246     Ni1253   1.937       .  S
O1246      C1256   1.287       .  A
O1247     Ni1253   1.890       .  S
O1247      C1257   1.273       .  A
O1248     Ni1253   1.885       .  S
O1248      C1258   1.273       .  A
O1249     Ni1254   1.935       .  S
O1249      C1258   1.287       .  A
O1250     Ni1254   1.934       .  S
O1250      C1257   1.286       .  A
O1251     Ni1254   1.892       .  S
O1251      C1256   1.275       .  A
O1252     Ni1254   1.894   1_455  S
O1252      C1255   1.275       .  A
Ni1253    Ni1254   2.390       .  S
C1255      C2325   1.475       .  S
C1256      C2409   1.479       .  S
C1257      C2316   1.467       .  S
C1258      C2337   1.474       .  S
O1259     Ni1267   1.938       .  S
O1259      C1269   1.287       .  A
O1260     Ni1267   1.938   1_455  S
O1260      C1270   1.286       .  A
O1261     Ni1267   1.885       .  S
O1261      C1271   1.274       .  A
O1262     Ni1267   1.888       .  S
O1262      C1272   1.275       .  A
O1263     Ni1268   1.940       .  S
O1263      C1272   1.288       .  A
O1264     Ni1268   1.937       .  S
O1264      C1271   1.287       .  A
O1265     Ni1268   1.896   1_455  S
O1265      C1270   1.276       .  A
O1266     Ni1268   1.889       .  S
O1266      C1269   1.274       .  A
Ni1267    Ni1268   2.386       .  S
C1269      C2364   1.477       .  S
C1270      C2301   1.482       .  S
C1271      C2340   1.476       .  S
C1272      C2289   1.488       .  S
O1273     Ni1281   1.930       .  S
O1273      C1283   1.285       .  A
O1274     Ni1281   1.933       .  S
O1274      C1284   1.285       .  A
O1275     Ni1281   1.890       .  S
O1275      C1285   1.273       .  A
O1276     Ni1281   1.890       .  S
O1276      C1286   1.276       .  A
O1277     Ni1282   1.941       .  S
O1277      C1286   1.287       .  A
O1278     Ni1282   1.950       .  S
O1278      C1285   1.290       .  A
O1279     Ni1282   1.896       .  S
O1279      C1284   1.275       .  A
O1280     Ni1282   1.895       .  S
O1280      C1283   1.275       .  A
Ni1281    Ni1282   2.385       .  S
C1283      C2400   1.471       .  S
C1284      C2268   1.470       .  S
C1285      C2253   1.491       .  S
C1286      C2277   1.495       .  S
O1287     Ni1295   1.944       .  S
O1287      C1297   1.287       .  A
O1288     Ni1295   1.940       .  S
O1288      C1298   1.287       .  A
O1289     Ni1295   1.895       .  S
O1289      C1299   1.276       .  A
O1290     Ni1295   1.894       .  S
O1290      C1300   1.276       .  A
O1291     Ni1296   1.942       .  S
O1291      C1300   1.288       .  A
O1292     Ni1296   1.936       .  S
O1292      C1299   1.286       .  A
O1293     Ni1296   1.894       .  S
O1293      C1298   1.274       .  A
O1294     Ni1296   1.889       .  S
O1294      C1297   1.273       .  A
Ni1295    Ni1296   2.385       .  S
C1297      C2241   1.473       .  S
C1298      C2376   1.476       .  S
C1299      C2280   1.494       .  S
C1300      C2229   1.491       .  S
O1301     Ni1309   1.935       .  S
O1301      C1311   1.285       .  A
O1302     Ni1309   1.936       .  S
O1302      C1312   1.286       .  A
O1303     Ni1309   1.894       .  S
O1303      C1313   1.276       .  A
O1304     Ni1309   1.893       .  S
O1304      C1314   1.275       .  A
O1305     Ni1310   1.930       .  S
O1305      C1314   1.285       .  A
O1306     Ni1310   1.931       .  S
O1306      C1313   1.285       .  A
O1307     Ni1310   1.892       .  S
O1307      C1312   1.274       .  A
O1308     Ni1310   1.887       .  S
O1308      C1311   1.274       .  A
Ni1309    Ni1310   2.386       .  S
C1311      C2328   1.470       .  S
C1312      C2265   1.476       .  S
C1313      C2205   1.490       .  S
C1314      C2217   1.473       .  S
O1315     Ni1323   1.938       .  S
O1315      C1325   1.287       .  A
O1316     Ni1323   1.939       .  S
O1316      C1326   1.287       .  A
O1317     Ni1323   1.893       .  S
O1317      C1327   1.274       .  A
O1318     Ni1323   1.896       .  S
O1318      C1328   1.277       .  A
O1319     Ni1324   1.938       .  S
O1319      C1328   1.286       .  A
O1320     Ni1324   1.936       .  S
O1320      C1327   1.286       .  A
O1321     Ni1324   1.897       .  S
O1321      C1326   1.276       .  A
O1322     Ni1324   1.894       .  S
O1322      C1325   1.275       .  A
Ni1323    Ni1324   2.384       .  S
C1325      C2244   1.477       .  S
C1326      C2304   1.488       .  S
C1327      C2220   1.475       .  S
C1328      C2193   1.496       .  S
O1329     Ni1337   1.923       .  S
O1329      C1339   1.283       .  A
O1330     Ni1337   1.924       .  S
O1330      C1340   1.283       .  A
O1331     Ni1337   1.907       .  S
O1331      C1341   1.278       .  A
O1332     Ni1337   1.904       .  S
O1332      C1342   1.277       .  A
O1333     Ni1338   1.933       .  S
O1333      C1342   1.285       .  A
O1334     Ni1338   1.928       .  S
O1334      C1341   1.285       .  A
O1335     Ni1338   1.904       .  S
O1335      C1340   1.278       .  A
O1336     Ni1338   1.906       .  S
O1336      C1339   1.279       .  A
Ni1337    Ni1338   2.387       .  S
C1339      C2157   1.490       .  S
C1340      C2169   1.470       .  S
C1341      C2181   1.479       .  S
C1342      C2148   1.477       .  S
O1344     Ni1351   1.936   1_565  S
O1344      C1354   1.286       .  A
O1345     Ni1351   1.897       .  S
O1345      C1355   1.275   1_545  A
O1346     Ni1351   1.893   1_565  S
O1346      C1356   1.275       .  A
O1347     Ni1352   1.944       .  S
O1347      C1356   1.288       .  A
O1348     Ni1352   1.947       .  S
O1348      C1355   1.289       .  A
O1349     Ni1352   1.901       .  S
O1349      C1354   1.276       .  A
O1350     Ni1352   1.894       .  S
O1350      C1353   1.274       .  A
Ni1351    Ni1352   2.387   1_545  S
C1353      C2121   1.478       .  S
C1354      C2133   1.478       .  S
C1355      C2109   1.487       .  S
C1356      C2184   1.480       .  S
O1357     Ni1365   1.933       .  S
O1357      C1367   1.285       .  A
O1358     Ni1365   1.935       .  S
O1358      C1368   1.285       .  A
O1359     Ni1365   1.913       .  S
O1359      C1369   1.279       .  A
O1360     Ni1365   1.904       .  S
O1360      C1370   1.277       .  A
O1361     Ni1366   1.937       .  S
O1361      C1370   1.285       .  A
O1362     Ni1366   1.935       .  S
O1362      C1369   1.286       .  A
O1363     Ni1366   1.902       .  S
O1363      C1368   1.278       .  A
O1364     Ni1366   1.898       .  S
O1364      C1367   1.278       .  A
Ni1365    Ni1366   2.383       .  S
C1367      C2160   1.493       .  S
C1368      C2085   1.494       .  S
C1369      C2097   1.484       .  S
C1370      C2073   1.477       .  S
O1371     Ni1379   1.937       .  S
O1371      C1381   1.286       .  A
O1372     Ni1379   1.938       .  S
O1372      C1382   1.287       .  A
O1373     Ni1379   1.895       .  S
O1373      C1383   1.276       .  A
O1374     Ni1379   1.893       .  S
O1374      C1384   1.274       .  A
O1375     Ni1380   1.948       .  S
O1375      C1384   1.288       .  A
O1376     Ni1380   1.944       .  S
O1376      C1383   1.288       .  A
O1377     Ni1380   1.898       .  S
O1377      C1382   1.275       .  A
O1378     Ni1380   1.898       .  S
O1378      C1381   1.274       .  A
Ni1379    Ni1380   2.385       .  S
C1381      C2061   1.471       .  S
C1382      C2136   1.484       .  S
C1383      C2049   1.497       .  S
C1384      C2100   1.480       .  S
O1385     Ni1393   1.939       .  S
O1385      C1395   1.286       .  A
O1386     Ni1393   1.942       .  S
O1386      C1396   1.287       .  A
O1387     Ni1393   1.906       .  S
O1387      C1397   1.277       .  A
O1388     Ni1393   1.912       .  S
O1388      C1398   1.279       .  A
O1389     Ni1394   1.931       .  S
O1389      C1398   1.286       .  A
O1390     Ni1394   1.936       .  S
O1390      C1397   1.287       .  A
O1391     Ni1394   1.895       .  S
O1391      C1396   1.275       .  A
O1392     Ni1394   1.894       .  S
O1392      C1395   1.274       .  A
Ni1393    Ni1394   2.387       .  S
C1395      C2064   1.468       .  S
C1396      C2025   1.478       .  S
C1397      C2013   1.491       .  S
C1398      C2037   1.490       .  S
O1399     Ni1407   1.930       .  S
O1399      C1409   1.286       .  A
O1400     Ni1407   1.934       .  S
O1400      C1410   1.286       .  A
O1401     Ni1407   1.898       .  S
O1401      C1411   1.277       .  A
O1402     Ni1407   1.905       .  S
O1402      C1412   1.276       .  A
O1403     Ni1408   1.941       .  S
O1403      C1412   1.287       .  A
O1404     Ni1408   1.942       .  S
O1404      C1411   1.287       .  A
O1405     Ni1408   1.898       .  S
O1405      C1410   1.277       .  A
O1406     Ni1408   1.894       .  S
O1406      C1409   1.274       .  A
Ni1407    Ni1408   2.386       .  S
C1409      C2004   1.476       .  S
C1410      C2088   1.489       .  S
C1411      C2040   1.486       .  S
C1412      C1989   1.477       .  S
O1413     Ni1421   1.938   1_455  S
O1413      C1423   1.287       .  A
O1414     Ni1421   1.939       .  S
O1414      C1424   1.287       .  A
O1415     Ni1421   1.897       .  S
O1415      C1425   1.277       .  A
O1416     Ni1421   1.896       .  S
O1416      C1426   1.275       .  A
O1417     Ni1422   1.949       .  S
O1417      C1426   1.290   1_455  A
O1418     Ni1422   1.952       .  S
O1418      C1425   1.289   1_455  A
O1419     Ni1422   1.897   1_655  S
O1419      C1424   1.275       .  A
O1420     Ni1422   1.889       .  S
O1420      C1423   1.273       .  A
Ni1421    Ni1422   2.383   1_655  S
C1423      C2124   1.472       .  S
C1424      C2028   1.484       .  S
C1425      C1968   1.503       .  S
C1426      C1977   1.490       .  S
O1427     Ni1435   1.935   1_655  S
O1427      C1437   1.286       .  A
O1428     Ni1435   1.936       .  S
O1428      C1438   1.286       .  A
O1429     Ni1435   1.904       .  S
O1429      C1439   1.276   1_455  A
O1430     Ni1435   1.904       .  S
O1430      C1440   1.276   1_455  A
O1431     Ni1436   1.947       .  S
O1431      C1440   1.290       .  A
O1432     Ni1436   1.943       .  S
O1432      C1439   1.289       .  A
O1433     Ni1436   1.899   1_455  S
O1433      C1438   1.276       .  A
O1434     Ni1436   1.885       .  S
O1434      C1437   1.273       .  A
Ni1435    Ni1436   2.384   1_455  S
C1437      C2001   1.467       .  S
C1438      C2172   1.479       .  S
C1439      C1980   1.491       .  S
C1440      C1953   1.501       .  S
O1441     Ni1449   1.934       .  S
O1441      C1451   1.287       .  A
O1442     Ni1449   1.935       .  S
O1442      C1452   1.286       .  A
O1443     Ni1449   1.898       .  S
O1443      C1453   1.275       .  A
O1444     Ni1449   1.901       .  S
O1444      C1454   1.276       .  A
O1445     Ni1450   1.938       .  S
O1445      C1454   1.287       .  A
O1446     Ni1450   1.943       .  S
O1446      C1453   1.287       .  A
O1447     Ni1450   1.896       .  S
O1447      C1452   1.275       .  A
O1448     Ni1450   1.895       .  S
O1448      C1451   1.275       .  A
Ni1449    Ni1450   2.388       .  S
C1451      C1917   1.482       .  S
C1452      C1929   1.472       .  S
C1453      C2016   1.478       .  S
C1454      C1941   1.482       .  S
O1455     Ni1463   1.930       .  S
O1455      C1465   1.285       .  A
O1456     Ni1463   1.926       .  S
O1456      C1466   1.285       .  A
O1457     Ni1463   1.895       .  S
O1457      C1467   1.275       .  A
O1458     Ni1463   1.895       .  S
O1458      C1468   1.273       .  A
O1459     Ni1464   1.949       .  S
O1459      C1468   1.291       .  A
O1460     Ni1464   1.945       .  S
O1460      C1467   1.288       .  A
O1461     Ni1464   1.899       .  S
O1461      C1466   1.275       .  A
O1462     Ni1464   1.890       .  S
O1462      C1465   1.274       .  A
Ni1463    Ni1464   2.385       .  S
C1465      C1893   1.466       .  S
C1466      C1905   1.478       .  S
C1467      C1944   1.484       .  S
C1468      C2352   1.499       .  S
O1469     Ni1477   1.934       .  S
O1469      C1479   1.286       .  A
O1470     Ni1477   1.939   1_455  S
O1470      C1480   1.287       .  A
O1471     Ni1477   1.892       .  S
O1471      C1481   1.274       .  A
O1472     Ni1477   1.893       .  S
O1472      C1482   1.276       .  A
O1473     Ni1478   1.937   1_565  S
O1473      C1482   1.286       .  A
O1474     Ni1478   1.939       .  S
O1474      C1481   1.286   1_545  A
O1475     Ni1478   1.895   1_455  S
O1475      C1480   1.275   1_545  A
O1476     Ni1478   1.892   1_565  S
O1476      C1479   1.275       .  A
Ni1477    Ni1478   2.386   1_565  S
C1479      C1896   1.475       .  S
C1480      C1869   1.480   1_565  S
C1481      C1881   1.473       .  S
C1482      C2292   1.493       .  S
O1483     Ni1491   1.922   1_455  S
O1483      C1493   1.284   1_545  A
O1484     Ni1491   1.930       .  S
O1484      C1494   1.285   1_545  A
O1485     Ni1491   1.898       .  S
O1485      C1495   1.277   1_545  A
O1486     Ni1491   1.896       .  S
O1486      C1496   1.275   1_545  A
O1487     Ni1492   1.932       .  S
O1487      C1496   1.286       .  A
O1488     Ni1492   1.930       .  S
O1488      C1495   1.285       .  A
O1489     Ni1492   1.901       .  S
O1489      C1494   1.276       .  A
O1490     Ni1492   1.897   1_455  S
O1490      C1493   1.276       .  A
Ni1491    Ni1492   2.389   1_545  S
C1493      C1857   1.470   1_565  S
C1494      C1932   1.472       .  S
C1495      C1965   1.487       .  S
C1496      C1884   1.473       .  S
O1497     Ni1505   1.938       .  S
O1497      C1507   1.287       .  A
O1498     Ni1505   1.940       .  S
O1498      C1508   1.287       .  A
O1499     Ni1505   1.889       .  S
O1499      C1509   1.275       .  A
O1500     Ni1505   1.892       .  S
O1500      C1510   1.275       .  A
O1501     Ni1506   1.945       .  S
O1501      C1510   1.289       .  A
O1502     Ni1506   1.941       .  S
O1502      C1509   1.288       .  A
O1503     Ni1506   1.890       .  S
O1503      C1508   1.273       .  A
O1504     Ni1506   1.881       .  S
O1504      C1507   1.273       .  A
Ni1505    Ni1506   2.388       .  S
C1507      C1833   1.474       .  S
C1508      C1872   1.471       .  S
C1509      C1845   1.482       .  S
C1510      C2196   1.487       .  S
O1511     Ni1519   1.933       .  S
O1511      C1521   1.286       .  A
O1512     Ni1519   1.940       .  S
O1512      C1522   1.287       .  A
O1513     Ni1519   1.896       .  S
O1513      C1523   1.274       .  A
O1514     Ni1519   1.893       .  S
O1514      C1524   1.275       .  A
O1515     Ni1520   1.936       .  S
O1515      C1524   1.286       .  A
O1516     Ni1520   1.943       .  S
O1516      C1523   1.287       .  A
O1517     Ni1520   1.889       .  S
O1517      C1522   1.273       .  A
O1518     Ni1520   1.885       .  S
O1518      C1521   1.274       .  A
Ni1519    Ni1520   2.387       .  S
C1521      C1860   1.478       .  S
C1522      C1821   1.472       .  S
C1523      C2112   1.475       .  S
C1524      C1848   1.483       .  S
O1525     Ni1533   1.935       .  S
O1525      C1535   1.287       .  A
O1526     Ni1533   1.937       .  S
O1526      C1536   1.287       .  A
O1527     Ni1533   1.900       .  S
O1527      C1537   1.277       .  A
O1528     Ni1533   1.897       .  S
O1528      C1538   1.275       .  A
O1529     Ni1534   1.937       .  S
O1529      C1538   1.287       .  A
O1530     Ni1534   1.937       .  S
O1530      C1537   1.286       .  A
O1531     Ni1534   1.897       .  S
O1531      C1536   1.275       .  A
O1532     Ni1534   1.889       .  S
O1532      C1535   1.274       .  A
Ni1533    Ni1534   2.385       .  S
C1535      C1920   1.475       .  S
C1536      C1824   1.479       .  S
C1537      C2052   1.497       .  S
C1538      C1809   1.478       .  S
O1539     Ni1547   1.930       .  S
O1539      C1549   1.285       .  A
O1540     Ni1547   1.935       .  S
O1540      C1550   1.285       .  A
O1541     Ni1547   1.903       .  S
O1541      C1551   1.277       .  A
O1542     Ni1547   1.904       .  S
O1542      C1552   1.278       .  A
O1543     Ni1548   1.934       .  S
O1543      C1552   1.285       .  A
O1544     Ni1548   1.932       .  S
O1544      C1551   1.285       .  A
O1545     Ni1548   1.890       .  S
O1545      C1550   1.274       .  A
O1546     Ni1548   1.889       .  S
O1546      C1549   1.275       .  A
Ni1547    Ni1548   2.384       .  S
C1549      C1836   1.483       .  S
C1550      C1908   1.470       .  S
C1551      C1812   1.480       .  S
C1552      C2232   1.497       .  S
O1553     Ni1561   1.943       .  S
O1553      C1563   1.288       .  A
O1554     Ni1561   1.941       .  S
O1554      C1564   1.287       .  A
O1555     Ni1561   1.897       .  S
O1555      C1565   1.275       .  A
O1556     Ni1561   1.899       .  S
O1556      C1566   1.275       .  A
O1557     Ni1562   1.934       .  S
O1557      C1566   1.286       .  A
O1558     Ni1562   1.930       .  S
O1558      C1565   1.286       .  A
O1559     Ni1562   1.892       .  S
O1559      C1564   1.276       .  A
O1560     Ni1562   1.894       .  S
O1560      C1563   1.275       .  A
Ni1561    Ni1562   2.385       .  S
C1563      C1773   1.483       .  S
C1564      C1785   1.491       .  S
C1565      C1797   1.475       .  S
C1566      C2145   1.482       .  S
O1567     Ni1575   1.931       .  S
O1567      C1577   1.286       .  A
O1568     Ni1575   1.933       .  S
O1568      C1578   1.286       .  A
O1569     Ni1575   1.886       .  S
O1569      C1579   1.274       .  A
O1570     Ni1575   1.888       .  S
O1570      C1580   1.274       .  A
O1571     Ni1576   1.935       .  S
O1571      C1580   1.286       .  A
O1572     Ni1576   1.938       .  S
O1572      C1579   1.287       .  A
O1573     Ni1576   1.899       .  S
O1573      C1578   1.276       .  A
O1574     Ni1576   1.900       .  S
O1574      C1577   1.276       .  A
Ni1575    Ni1576   2.389       .  S
C1577      C1749   1.475       .  S
C1578      C1764   1.476       .  S
C1579      C2208   1.480       .  S
C1580      C1800   1.474       .  S
O1581     Ni1589   1.942       .  S
O1581      C1591   1.287       .  A
O1582     Ni1589   1.946       .  S
O1582      C1592   1.289       .  A
O1583     Ni1589   1.896       .  S
O1583      C1593   1.276       .  A
O1584     Ni1589   1.900       .  S
O1584      C1594   1.276       .  A
O1585     Ni1590   1.945       .  S
O1585      C1594   1.288       .  A
O1586     Ni1590   1.940       .  S
O1586      C1593   1.287       .  A
O1587     Ni1590   1.906       .  S
O1587      C1592   1.276       .  A
O1588     Ni1590   1.889       .  S
O1588      C1591   1.274       .  A
Ni1589    Ni1590   2.383       .  S
C1591      C1713   1.476       .  S
C1592      C1728   1.490       .  S
C1593      C1737   1.496       .  S
C1594      C1992   1.485       .  S
O1595     Ni1603   1.935       .  S
O1595      C1605   1.285       .  A
O1596     Ni1603   1.937       .  S
O1596      C1606   1.287       .  A
O1597     Ni1603   1.891       .  S
O1597      C1607   1.273       .  A
O1598     Ni1603   1.887       .  S
O1598      C1608   1.275       .  A
O1599     Ni1604   1.944       .  S
O1599      C1608   1.288       .  A
O1600     Ni1604   1.949       .  S
O1600      C1607   1.290       .  A
O1601     Ni1604   1.895       .  S
O1601      C1606   1.274       .  A
O1602     Ni1604   1.888       .  S
O1602      C1605   1.273       .  A
Ni1603    Ni1604   2.386       .  S
C1605      C1689   1.463       .  S
C1606      C1704   1.474       .  S
C1607      C2388   1.487       .  S
C1608      C1740   1.496       .  S
O1609     Ni1617   1.943       .  S
O1609      C1619   1.288       .  A
O1610     Ni1617   1.942       .  S
O1610      C1620   1.287       .  A
O1611     Ni1617   1.898       .  S
O1611      C1621   1.276       .  A
O1612     Ni1617   1.899       .  S
O1612      C1622   1.275       .  A
O1613     Ni1618   1.938       .  S
O1613      C1622   1.288       .  A
O1614     Ni1618   1.934       .  S
O1614      C1621   1.286       .  A
O1615     Ni1618   1.898       .  S
O1615      C1620   1.275       .  A
O1616     Ni1618   1.895       .  S
O1616      C1619   1.275       .  A
Ni1617    Ni1618   2.387       .  S
C1619      C1776   1.486       .  S
C1620      C1725   1.477       .  S
C1621      C1677   1.476       .  S
C1622      C2076   1.483       .  S
O1624     Ni1631   1.933   1_565  S
O1624      C1634   1.286       .  A
O1625     Ni1631   1.897       .  S
O1625      C1635   1.275   1_545  A
O1626     Ni1631   1.895   1_565  S
O1626      C1636   1.275       .  A
O1627     Ni1632   1.935       .  S
O1627      C1636   1.286       .  A
O1628     Ni1632   1.936       .  S
O1628      C1635   1.286       .  A
O1629     Ni1632   1.905       .  S
O1629      C1634   1.278       .  A
O1630     Ni1632   1.906       .  S
O1630      C1633   1.278       .  A
Ni1631    Ni1632   2.385   1_545  S
C1634      C1761   1.483       .  S
C1635      C2256   1.474       .  S
C1636      C1680   1.476       .  S
O1637     Ni1645   1.939       .  S
O1637      C1647   1.288       .  A
O1638     Ni1645   1.937   1_455  S
O1638      C1648   1.287       .  A
O1639     Ni1645   1.893       .  S
O1639      C1649   1.275       .  A
O1640     Ni1645   1.899       .  S
O1640      C1650   1.274       .  A
O1641     Ni1646   1.950       .  S
O1641      C1650   1.291       .  A
O1642     Ni1646   1.946       .  S
O1642      C1649   1.289       .  A
O1643     Ni1646   1.895   1_455  S
O1643      C1648   1.275       .  A
O1644     Ni1646   1.894       .  S
O1644      C1647   1.274       .  A
Ni1645    Ni1646   2.384       .  S
C1647      C1716   1.484       .  S
C1648      C1788   1.482       .  S
C1649      C1665   1.487       .  S
C1650      C1956   1.496       .  S
O1651     Ni1659   1.944   1_455  S
O1651      C1661   1.288       .  A
O1652     Ni1659   1.946       .  S
O1652      C1662   1.289       .  A
O1653     Ni1659   1.889       .  S
O1653      C1663   1.274       .  A
O1654     Ni1659   1.901       .  S
O1654      C1664   1.276       .  A
O1655     Ni1660   1.937       .  S
O1655      C1664   1.288       .  A
O1656     Ni1660   1.939       .  S
O1656      C1663   1.287       .  A
O1657     Ni1660   1.886       .  S
O1657      C1662   1.273       .  A
O1658     Ni1660   1.884   1_455  S
O1658      C1661   1.273       .  A
Ni1659    Ni1660   2.386       .  S
C1661      C1752   1.480       .  S
C1662      C1701   1.479       .  S
C1663      C2313   1.480       .  S
C1664      C1668   1.484       .  S
C1665      C1666   1.410       .  A
C1665      C1670   1.412       .  A
C1666      C1667   1.398       .  A
C1666      H1675   1.084       .  S
C1667      C1668   1.410   1_556  A
C1667      S1671   1.803   1_556  S
C1668      C1669   1.410   1_554  A
C1669      C1670   1.405       .  A
C1669      H1676   1.084   1_556  S
C1670      S1672   1.802       .  S
S1671      H1674   1.408       .  S
S1672      H1673   1.407   1_655  S
C1677      C1678   1.407       .  A
C1677      C1682   1.410       .  A
C1678      C1679   1.400   1_556  A
C1678      H1687   1.084       .  S
C1679      C1680   1.411       .  A
C1679      S1683   1.803       .  S
C1680      C1681   1.407       .  A
C1681      C1682   1.398   1_554  A
C1681      H1688   1.084       .  S
C1682      S1684   1.803   1_565  S
S1683      H1686   1.407       .  S
S1684      H1685   1.406   1_545  S
C1689      C1690   1.405       .  A
C1689      C1694   1.409       .  A
C1690      C1691   1.399       .  A
C1690      H1699   1.085       .  S
C1691      C1692   1.409       .  A
C1691      S1695   1.801       .  S
C1692      C1693   1.406       .  A
C1693      C1694   1.397       .  A
C1693      H1700   1.084       .  S
C1694      S1696   1.805       .  S
S1696      H1697   1.403       .  S
C1701      C1702   1.400       .  A
C1701      C1706   1.420       .  A
C1702      C1703   1.402       .  A
C1702      H1711   1.083       .  S
C1703      C1704   1.418       .  A
C1703      S1707   1.804       .  S
C1704      C1705   1.397       .  A
C1705      C1706   1.397       .  A
C1705      H1712   1.084       .  S
C1706      S1708   1.805       .  S
S1707      H1710   1.406       .  S
S1708      H1709   1.407       .  S
C1713      C1714   1.399       .  A
C1713      C1718   1.416       .  A
C1714      C1715   1.401       .  A
C1714      H1723   1.085       .  S
C1715      C1716   1.423       .  A
C1715      S1719   1.804       .  S
C1716      C1717   1.402       .  A
C1717      C1718   1.398       .  A
C1717      H1724   1.085       .  S
C1718      S1720   1.805       .  S
S1719      H1722   1.407       .  S
S1720      H1721   1.407       .  S
C1726      C1727   1.408       .  A
C1726      H1735   1.084       .  S
C1727      C1728   1.421       .  A
C1727      S1731   1.803       .  S
C1728      C1729   1.402       .  A
C1729      C1730   1.402       .  A
C1729      H1736   1.084       .  S
S1731      H1734   1.407       .  S
S1732      H1733   1.407   1_545  S
C1737      C1738   1.415       .  A
C1737      C1742   1.412       .  A
C1738      C1739   1.402   1_556  A
C1738      H1747   1.083       .  S
C1739      C1740   1.412       .  A
C1739      S1743   1.801       .  S
C1740      C1741   1.413       .  A
C1741      C1742   1.398   1_554  A
C1741      H1748   1.083       .  S
C1742      S1744   1.800       .  S
S1743      H1746   1.408       .  S
S1744      H1745   1.408       .  S
C1749      C1750   1.397       .  A
C1749      C1754   1.418       .  A
C1750      C1751   1.395       .  A
C1750      H1759   1.085       .  S
C1751      C1752   1.421       .  A
C1751      S1755   1.804       .  S
C1752      C1753   1.400       .  A
C1753      C1754   1.402       .  A
C1753      H1760   1.084       .  S
C1754      S1756   1.802       .  S
S1755      H1758   1.405       .  S
S1756      H1757   1.406       .  S
C1761      C1762   1.403       .  A
C1761      C1766   1.418       .  A
C1762      C1763   1.404       .  A
C1762      H1771   1.082       .  S
C1763      C1764   1.415       .  A
C1763      S1767   1.808       .  S
C1764      C1765   1.399       .  A
C1765      C1766   1.399       .  A
C1765      H1772   1.084       .  S
C1766      S1768   1.803       .  S
S1767      H1770   1.407   1_565  S
S1768      H1769   1.406       .  S
C1773      C1774   1.409       .  A
C1773      C1778   1.409       .  A
C1774      C1775   1.401       .  A
C1774      H1783   1.084       .  S
C1775      C1776   1.412       .  A
C1775      S1779   1.802       .  S
C1776      C1777   1.411       .  A
C1777      C1778   1.401       .  A
C1777      H1784   1.084       .  S
C1778      S1780   1.799   1_565  S
S1779      H1782   1.407       .  S
S1780      H1781   1.407       .  S
C1785      C1786   1.413       .  A
C1785      C1790   1.414       .  A
C1786      C1787   1.399       .  A
C1786      H1795   1.083       .  S
C1787      C1788   1.409       .  A
C1787      S1791   1.803       .  S
C1788      C1789   1.408       .  A
C1789      C1790   1.401       .  A
C1789      H1796   1.083       .  S
C1790      S1792   1.799       .  S
S1791      H1794   1.407       .  S
S1792      H1793   1.404       .  S
C1797      C1798   1.399       .  A
C1797      C1802   1.418       .  A
C1798      C1799   1.399   1_556  A
C1798      H1807   1.083       .  S
C1799      C1800   1.416       .  A
C1799      S1803   1.810       .  S
C1800      C1801   1.399       .  A
C1801      C1802   1.399   1_554  A
C1801      H1808   1.084       .  S
C1802      S1804   1.802       .  S
S1803      H1806   1.407   1_554  S
S1804      H1805   1.406       .  S
C1809      C1810   1.400       .  A
C1809      C1814   1.418       .  A
C1810      C1811   1.400       .  A
C1810      H1819   1.084       .  S
C1811      C1812   1.418       .  A
C1811      S1815   1.802       .  S
C1812      C1813   1.400       .  A
C1813      C1814   1.398       .  A
C1813      H1820   1.082       .  S
C1814      S1816   1.805       .  S
S1815      H1818   1.407       .  S
S1816      H1817   1.406       .  S
C1821      C1822   1.399       .  A
C1821      C1826   1.416       .  A
C1822      C1823   1.401       .  A
C1822      H1831   1.085       .  S
C1823      C1824   1.418       .  A
C1823      S1827   1.803       .  S
C1824      C1825   1.401       .  A
C1825      C1826   1.398       .  A
C1825      H1832   1.084       .  S
C1826      S1828   1.805       .  S
S1827      H1830   1.407       .  S
S1828      H1829   1.407       .  S
C1833      C1834   1.407       .  A
C1833      C1838   1.407       .  A
C1834      C1835   1.394       .  A
C1834      H1843   1.083       .  S
C1835      C1836   1.412       .  A
C1835      S1839   1.800       .  S
C1836      C1837   1.413       .  A
C1837      C1838   1.397       .  A
C1837      H1844   1.083       .  S
C1838      S1840   1.802       .  S
S1839      H1842   1.407       .  S
S1840      H1841   1.407       .  S
C1845      C1846   1.409       .  A
C1845      C1850   1.411       .  A
C1846      C1847   1.398       .  A
C1846      H1855   1.084       .  S
C1847      C1848   1.411       .  A
C1847      S1851   1.800       .  S
C1848      C1849   1.409       .  A
C1849      C1850   1.399       .  A
C1849      H1856   1.084       .  S
C1850      S1852   1.800       .  S
S1851      H1854   1.407       .  S
S1852      H1853   1.404       .  S
C1857      C1862   1.408       .  A
C1858      C1859   1.402       .  A
C1859      C1860   1.412       .  A
C1859      S1863   1.808       .  S
C1860      C1861   1.409       .  A
C1861      H1868   1.084       .  S
C1862      S1864   1.803       .  S
S1863      H1866   1.407       .  S
S1864      H1865   1.406       .  S
C1870      C1871   1.400       .  A
C1871      C1872   1.417       .  A
C1871      S1875   1.804       .  S
C1872      C1873   1.397       .  A
C1873      C1874   1.399       .  A
C1873      H1880   1.085       .  S
C1874      S1876   1.805       .  S
S1875      H1878   1.406       .  S
C1881      C1882   1.399   1_565  A
C1881      C1886   1.416       .  A
C1882      C1883   1.400       .  A
C1882      H1891   1.084   1_655  S
C1883      C1884   1.417   1_545  A
C1884      C1885   1.398       .  A
C1885      C1886   1.397       .  A
C1885      H1892   1.084       .  S
C1886      S1888   1.801       .  S
S1887      H1890   1.406       .  S
S1888      H1889   1.405       .  S
C1893      C1894   1.397       .  A
C1893      C1898   1.413       .  A
C1894      C1895   1.397       .  A
C1894      H1903   1.085       .  S
C1895      C1896   1.418       .  A
C1895      S1899   1.804       .  S
C1896      C1897   1.401       .  A
C1897      C1898   1.397       .  A
C1897      H1904   1.083       .  S
C1898      S1900   1.803       .  S
S1899      H1902   1.407       .  S
S1900      H1901   1.407       .  S
C1905      C1906   1.400       .  A
C1905      C1910   1.420       .  A
C1906      C1907   1.393       .  A
C1906      H1915   1.085       .  S
C1907      C1908   1.414       .  A
C1907      S1911   1.802       .  S
C1908      C1909   1.399       .  A
C1909      C1910   1.401       .  A
C1909      H1916   1.085       .  S
C1910      S1912   1.803       .  S
S1911      H1914   1.406       .  S
S1912      H1913   1.408       .  S
C1917      C1918   1.401       .  A
C1917      C1922   1.421       .  A
C1918      C1919   1.397       .  A
C1918      H1927   1.084       .  S
C1919      C1920   1.417       .  A
C1919      S1923   1.805       .  S
C1920      C1921   1.399       .  A
C1921      C1922   1.399       .  A
C1921      H1928   1.084       .  S
C1922      S1924   1.804       .  S
S1923      H1926   1.406       .  S
S1924      H1925   1.407       .  S
C1929      C1930   1.401       .  A
C1929      C1934   1.415       .  A
C1930      C1931   1.400       .  A
C1930      H1939   1.085       .  S
C1931      C1932   1.415       .  A
C1931      S1935   1.803       .  S
C1932      C1933   1.399       .  A
C1933      C1934   1.398       .  A
C1933      H1940   1.085       .  S
C1934      S1936   1.804       .  S
S1935      H1938   1.407       .  S
S1936      H1937   1.406       .  S
C1941      C1942   1.399       .  A
C1941      C1946   1.417       .  A
C1942      C1943   1.398       .  A
C1942      H1951   1.084       .  S
C1943      C1944   1.418       .  A
C1943      S1947   1.804       .  S
C1944      C1945   1.403       .  A
C1945      C1946   1.408       .  A
C1945      H1952   1.082       .  S
C1946      S1948   1.809       .  S
S1947      H1950   1.407       .  S
S1948      H1949   1.407       .  S
C1953      C1954   1.403       .  A
C1953      C1958   1.427       .  A
C1954      C1955   1.404       .  A
C1954      H1963   1.085       .  S
C1955      C1956   1.423       .  A
C1955      S1959   1.804       .  S
C1956      C1957   1.400       .  A
C1957      C1958   1.403       .  A
C1957      H1964   1.085       .  S
C1958      S1960   1.802       .  S
S1959      H1962   1.408       .  S
S1960      H1961   1.408       .  S
C1965      C1970   1.409       .  A
C1966      C1967   1.406       .  A
C1966      H1975   1.083       .  S
C1967      C1968   1.416       .  A
C1967      S1971   1.800   1_655  S
C1969      C1970   1.395       .  A
C1969      H1976   1.083       .  S
C1970      S1972   1.800       .  S
S1971      H1974   1.405   1_455  S
S1972      H1973   1.407   1_655  S
C1977      C1978   1.401       .  A
C1977      C1982   1.422   1_655  A
C1978      C1979   1.404       .  A
C1978      H1987   1.083       .  S
C1979      C1980   1.423       .  A
C1979      S1983   1.804       .  S
C1980      C1981   1.401   1_655  A
C1981      C1982   1.402       .  A
C1981      H1988   1.083       .  S
C1982      S1984   1.804       .  S
S1983      H1986   1.406       .  S
S1984      H1985   1.407       .  S
C1989      C1990   1.405       .  A
C1989      C1994   1.411       .  A
C1990      C1991   1.406       .  A
C1990      H1999   1.084       .  S
C1991      C1992   1.416       .  A
C1991      S1995   1.802       .  S
C1992      C1993   1.406       .  A
C1993      C1994   1.400       .  A
C1993      H2000   1.084       .  S
C1994      S1996   1.803       .  S
S1995      H1998   1.405       .  S
S1996      H1997   1.404       .  S
C2001      C2002   1.398       .  A
C2001      C2006   1.414       .  A
C2002      C2003   1.398       .  A
C2002      H2011   1.084       .  S
C2003      C2004   1.419       .  A
C2003      S2007   1.804       .  S
C2004      C2005   1.402       .  A
C2005      C2006   1.396       .  A
C2005      H2012   1.084       .  S
C2006      S2008   1.806       .  S
S2007      H2010   1.408       .  S
S2008      H2009   1.406       .  S
C2013      C2014   1.404       .  A
C2013      C2018   1.422       .  A
C2014      C2015   1.400       .  A
C2014      H2023   1.083       .  S
C2015      C2016   1.415       .  A
C2015      S2019   1.805       .  S
C2016      C2017   1.400       .  A
C2017      C2018   1.404       .  A
C2017      H2024   1.083       .  S
C2018      S2020   1.803       .  S
S2019      H2022   1.406       .  S
S2020      H2021   1.408       .  S
C2025      C2026   1.400       .  A
C2025      C2030   1.417       .  A
C2026      C2027   1.402       .  A
C2026      H2035   1.084       .  S
C2027      C2028   1.420       .  A
C2027      S2031   1.803       .  S
C2028      C2029   1.402       .  A
C2029      C2030   1.400       .  A
C2029      H2036   1.084       .  S
C2030      S2032   1.804       .  S
S2031      H2034   1.407       .  S
S2032      H2033   1.407       .  S
C2037      C2038   1.411       .  A
C2037      C2042   1.415       .  A
C2038      C2039   1.405       .  A
C2038      H2047   1.084       .  S
C2039      C2040   1.413       .  A
C2039      S2043   1.803       .  S
C2040      C2041   1.406       .  A
C2041      C2042   1.398       .  A
C2041      H2048   1.085       .  S
C2042      S2044   1.802       .  S
S2043      H2046   1.408       .  S
S2044      H2045   1.404       .  S
C2049      C2050   1.413       .  A
C2049      C2054   1.413       .  A
C2050      C2051   1.401       .  A
C2050      H2059   1.083       .  S
C2051      C2052   1.414       .  A
C2051      S2055   1.801       .  S
C2052      C2053   1.413       .  A
C2053      C2054   1.402       .  A
C2053      H2060   1.083       .  S
C2054      S2056   1.800       .  S
S2055      H2058   1.407       .  S
S2056      H2057   1.408       .  S
C2061      C2062   1.404       .  A
C2061      C2066   1.411       .  A
C2062      C2063   1.399       .  A
C2062      H2071   1.084       .  S
C2063      C2064   1.410       .  A
C2063      S2067   1.801       .  S
C2064      C2065   1.403       .  A
C2065      C2066   1.400       .  A
C2065      H2072   1.082       .  S
C2066      S2068   1.803       .  S
S2067      H2070   1.404       .  S
S2068      H2069   1.403       .  S
C2073      C2074   1.400       .  A
C2073      C2078   1.414       .  A
C2074      C2075   1.402       .  A
C2074      H2083   1.084       .  S
C2075      C2076   1.421       .  A
C2075      S2079   1.804       .  S
C2076      C2077   1.402       .  A
C2077      C2078   1.399       .  A
C2077      H2084   1.083       .  S
C2078      S2080   1.803       .  S
S2079      H2082   1.405       .  S
S2080      H2081   1.407       .  S
C2085      C2086   1.412       .  A
C2085      C2090   1.416       .  A
C2086      C2087   1.400       .  A
C2086      H2095   1.084       .  S
C2087      C2088   1.412       .  A
C2087      S2091   1.802       .  S
C2088      C2089   1.408       .  A
C2089      C2090   1.399       .  A
C2089      H2096   1.084       .  S
C2090      S2092   1.799       .  S
S2091      H2094   1.406       .  S
S2092      H2093   1.397       .  S
C2097      C2098   1.401       .  A
C2097      C2102   1.416       .  A
C2098      C2099   1.401       .  A
C2098      H2107   1.084       .  S
C2099      C2100   1.417       .  A
C2099      S2103   1.805       .  S
C2100      C2101   1.401       .  A
C2101      C2102   1.403       .  A
C2101      H2108   1.084       .  S
C2102      S2104   1.797       .  S
S2103      H2106   1.407       .  S
S2104      H2105   1.408       .  S
C2109      C2110   1.402       .  A
C2110      H2119   1.084       .  S
C2111      C2112   1.414       .  A
C2111      S2115   1.804       .  S
C2112      C2113   1.398       .  A
C2113      C2114   1.401       .  A
C2113      H2120   1.085       .  S
C2114      S2116   1.804       .  S
S2115      H2118   1.407       .  S
C2121      C2126   1.419       .  A
C2122      C2123   1.398       .  A
C2122      H2131   1.083       .  S
C2123      C2124   1.417       .  A
C2123      S2127   1.804       .  S
C2124      C2125   1.397       .  A
C2125      H2132   1.084       .  S
C2126      S2128   1.804       .  S
S2127      H2130   1.405       .  S
S2128      H2129   1.407       .  S
C2133      C2134   1.399       .  A
C2133      C2138   1.417       .  A
C2134      C2135   1.400       .  A
C2134      H2143   1.082   1_565  S
C2135      C2136   1.420       .  A
C2135      S2139   1.804       .  S
C2136      C2137   1.402       .  A
C2137      C2138   1.401       .  A
C2137      H2144   1.083       .  S
C2138      S2140   1.804       .  S
S2139      H2142   1.408       .  S
S2140      H2141   1.407       .  S
C2145      C2146   1.401       .  A
C2145      C2150   1.421       .  A
C2146      C2147   1.398       .  A
C2146      H2155   1.084       .  S
C2147      C2148   1.415       .  A
C2147      S2151   1.802       .  S
C2148      C2149   1.400       .  A
C2149      C2150   1.401       .  A
C2149      H2156   1.084       .  S
C2150      S2152   1.805       .  S
S2151      H2154   1.406       .  S
S2152      H2153   1.408       .  S
C2157      C2158   1.410       .  A
C2157      C2162   1.414       .  A
C2158      C2159   1.401       .  A
C2158      H2167   1.083   1_565  S
C2159      C2160   1.415       .  A
C2159      S2163   1.801   1_565  S
C2160      C2161   1.410       .  A
C2161      C2162   1.396       .  A
C2161      H2168   1.083       .  S
C2162      S2164   1.801       .  S
S2163      H2166   1.408       .  S
S2164      H2165   1.408       .  S
C2169      C2170   1.399       .  A
C2170      H2179   1.084       .  S
C2171      C2172   1.418       .  A
C2171      S2175   1.804       .  S
C2172      C2173   1.401       .  A
C2173      C2174   1.400       .  A
C2173      H2180   1.084       .  S
C2174      S2176   1.803       .  S
S2175      H2178   1.407       .  S
C2181      C2182   1.408       .  A
C2181      C2186   1.411       .  A
C2182      C2183   1.404       .  A
C2182      H2191   1.083       .  S
C2183      C2184   1.412       .  A
C2183      S2187   1.802       .  S
C2184      C2185   1.407       .  A
C2185      C2186   1.397       .  A
C2185      H2192   1.084       .  S
C2186      S2188   1.804   1_565  S
S2187      H2190   1.407       .  S
S2188      H2189   1.407   1_545  S
C2193      C2194   1.415       .  A
C2193      C2198   1.416       .  A
C2194      C2195   1.400       .  A
C2194      H2203   1.083       .  S
C2195      C2196   1.408       .  A
C2195      S2199   1.802       .  S
C2196      C2197   1.410       .  A
C2197      C2198   1.401       .  A
C2197      H2204   1.084       .  S
C2198      S2200   1.801       .  S
S2199      H2202   1.407       .  S
S2200      H2201   1.408       .  S
C2205      C2206   1.414       .  A
C2205      C2210   1.415       .  A
C2206      C2207   1.398       .  A
C2206      H2215   1.083       .  S
C2207      C2208   1.409       .  A
C2207      S2211   1.803       .  S
C2208      C2209   1.408       .  A
C2209      C2210   1.397       .  A
C2209      H2216   1.083       .  S
C2210      S2212   1.801       .  S
S2211      H2214   1.408       .  S
S2212      H2213   1.408       .  S
C2217      C2218   1.399       .  A
C2217      C2222   1.417       .  A
C2218      C2219   1.398       .  A
C2218      H2227   1.083       .  S
C2219      C2220   1.418       .  A
C2219      S2223   1.804       .  S
C2220      C2221   1.400       .  A
C2221      C2222   1.398       .  A
C2221      H2228   1.083       .  S
C2222      S2224   1.804       .  S
S2223      H2226   1.406       .  S
S2224      H2225   1.407       .  S
C2229      C2230   1.410       .  A
C2229      C2234   1.411       .  A
C2230      C2231   1.399       .  A
C2230      H2239   1.084       .  S
C2231      C2232   1.415       .  A
C2231      S2235   1.801       .  S
C2232      C2233   1.414       .  A
C2233      C2234   1.403       .  A
C2233      H2240   1.083       .  S
C2234      S2236   1.802       .  S
S2235      H2238   1.408       .  S
S2236      H2237   1.408       .  S
C2241      C2242   1.400       .  A
C2241      C2246   1.416       .  A
C2242      C2243   1.401       .  A
C2242      H2251   1.084       .  S
C2243      C2244   1.418       .  A
C2243      S2247   1.805       .  S
C2244      C2245   1.399       .  A
C2245      C2246   1.399       .  A
C2245      H2252   1.082       .  S
C2246      S2248   1.804       .  S
S2247      H2250   1.408       .  S
S2248      H2249   1.406       .  S
C2253      C2254   1.403       .  A
C2254      C2255   1.403       .  A
C2254      H2263   1.084       .  S
C2255      S2259   1.803       .  S
C2256      C2257   1.398       .  A
C2257      C2258   1.399       .  A
C2257      H2264   1.084       .  S
C2258      S2260   1.804       .  S
S2259      H2262   1.404       .  S
S2260      H2261   1.408       .  S
C2265      C2266   1.402       .  A
C2265      C2270   1.418       .  A
C2266      C2267   1.399       .  A
C2266      H2275   1.083       .  S
C2267      C2268   1.415       .  A
C2267      S2271   1.804       .  S
C2268      C2269   1.398       .  A
C2269      C2270   1.398       .  A
C2269      H2276   1.084       .  S
C2270      S2272   1.805       .  S
S2271      H2274   1.407       .  S
S2272      H2273   1.407       .  S
C2277      C2278   1.413       .  A
C2277      C2282   1.413       .  A
C2278      C2279   1.397       .  A
C2278      H2287   1.084       .  S
C2279      C2280   1.412       .  A
C2279      S2283   1.801       .  S
C2280      C2281   1.413       .  A
C2281      C2282   1.401       .  A
C2281      H2288   1.084       .  S
C2282      S2284   1.800       .  S
S2283      H2286   1.407       .  S
S2284      H2285   1.408       .  S
C2289      C2290   1.412       .  A
C2289      C2294   1.410       .  A
C2290      C2291   1.398       .  A
C2290      H2299   1.083       .  S
C2291      C2292   1.413       .  A
C2291      S2295   1.801   1_565  S
C2292      C2293   1.414       .  A
C2293      C2294   1.400       .  A
C2293      H2300   1.083       .  S
C2294      S2296   1.802       .  S
S2295      H2298   1.408       .  S
S2296      H2297   1.408   1_655  S
C2301      C2302   1.408       .  A
C2301      C2306   1.408       .  A
C2302      C2303   1.400       .  A
C2302      H2311   1.083       .  S
C2303      C2304   1.413       .  A
C2303      S2307   1.802       .  S
C2304      C2305   1.411       .  A
C2305      C2306   1.400       .  A
C2305      H2312   1.084       .  S
C2306      S2308   1.799       .  S
S2307      H2310   1.408       .  S
S2308      H2309   1.407       .  S
C2313      C2314   1.402       .  A
C2313      C2318   1.419       .  A
C2314      C2315   1.399   1_655  A
C2314      H2323   1.083   1_655  S
C2315      C2316   1.414   1_455  A
C2315      S2319   1.805       .  S
C2316      C2317   1.397       .  A
C2317      C2318   1.401       .  A
C2317      H2324   1.083       .  S
C2318      S2320   1.811       .  S
S2319      H2322   1.407       .  S
S2320      H2321   1.407       .  S
C2325      C2326   1.408       .  A
C2325      C2330   1.410       .  A
C2326      C2327   1.399       .  A
C2326      H2335   1.084       .  S
C2327      C2328   1.408       .  A
C2327      S2331   1.800       .  S
C2328      C2329   1.405       .  A
C2329      C2330   1.396       .  A
C2329      H2336   1.085       .  S
C2330      S2332   1.802       .  S
S2331      H2334   1.406       .  S
S2332      H2333   1.406       .  S
C2337      C2338   1.409       .  A
C2337      C2342   1.408       .  A
C2338      C2339   1.396       .  A
C2338      H2347   1.083   1_655  S
C2339      C2340   1.409       .  A
C2339      S2343   1.801   1_655  S
C2340      C2341   1.409       .  A
C2341      C2342   1.396       .  A
C2341      H2348   1.084       .  S
C2342      S2344   1.802       .  S
S2343      H2346   1.405       .  S
S2344      H2345   1.408       .  S
C2349      C2350   1.399       .  A
C2349      C2354   1.423       .  A
C2350      C2351   1.402       .  A
C2350      H2359   1.086       .  S
C2351      C2352   1.428       .  A
C2351      S2355   1.803   1_565  S
C2352      C2353   1.403       .  A
C2353      C2354   1.402       .  A
C2353      H2360   1.085       .  S
C2354      S2356   1.804       .  S
S2355      H2358   1.408   1_545  S
S2356      H2357   1.407       .  S
C2361      C2362   1.398       .  A
C2361      C2366   1.417       .  A
C2362      C2363   1.398       .  A
C2362      H2371   1.084       .  S
C2363      C2364   1.419       .  A
C2363      S2367   1.804       .  S
C2364      C2365   1.400       .  A
C2365      C2366   1.399       .  A
C2365      H2372   1.083       .  S
C2366      S2368   1.803       .  S
S2367      H2370   1.408       .  S
S2368      H2369   1.405       .  S
C2373      C2374   1.401       .  A
C2373      C2378   1.420       .  A
C2374      C2375   1.400       .  A
C2374      H2383   1.084       .  S
C2375      C2376   1.418       .  A
C2375      S2379   1.804       .  S
C2376      C2377   1.398       .  A
C2377      C2378   1.400       .  A
C2377      H2384   1.084       .  S
C2378      S2380   1.805       .  S
S2379      H2382   1.406       .  S
S2380      H2381   1.408       .  S
C2385      C2386   1.398       .  A
C2385      C2390   1.414       .  A
C2386      C2387   1.405       .  A
C2387      C2388   1.421       .  A
C2388      C2389   1.403       .  A
C2389      C2390   1.402       .  A
C2389      H2396   1.084       .  S
C2390      S2392   1.803       .  S
S2392      H2393   1.406       .  S
C2397      C2398   1.409       .  A
C2397      C2402   1.411       .  A
C2398      C2399   1.398       .  A
C2399      C2400   1.407       .  A
C2400      C2401   1.406       .  A
C2401      C2402   1.399       .  A
C2401      H2408   1.084       .  S
C2402      S2404   1.802       .  S
S2403      H2406   1.406       .  S
S2404      H2405   1.408       .  S
C2409      C2410   1.409       .  A
C2409      C2414   1.411       .  A
C2410      C2411   1.399       .  A
C2410      H2419   1.085       .  S
C2411      C2412   1.410       .  A
C2411      S2415   1.803   1_565  S
C2412      C2413   1.406       .  A
C2413      C2414   1.397       .  A
C2413      H2420   1.085       .  S
C2414      S2416   1.802       .  S
S2415      H2418   1.407   1_545  S
S2416      H2417   1.408       .  S
C2421      C2422   1.401       .  A
C2421      C2426   1.417       .  A
C2422      C2423   1.402       .  A
C2422      H2431   1.083       .  S
C2423      C2424   1.420       .  A
C2423      S2427   1.804       .  S
C2424      C2425   1.401       .  A
C2425      C2426   1.400       .  A
C2425      H2432   1.082   1_565  S
C2426      S2428   1.804   1_565  S
S2427      H2430   1.407       .  S
S2428      H2429   1.408   1_545  S
