geometry optimzed in LAMMPS
_audit_creation_date              2020-12-01 
_audit_creation_method            'lammps2cif' 
_symmetry_space_group_name_H-M    'P1' 
_symmetry_Int_Tables_number       1 
_symmetry_cell_setting            triclinic 
loop_ 
_symmetry_equiv_pos_as_xyz 
  x,y,z 
_cell_length_a                    42.45607586 
_cell_length_b                    34.52877583592637 
_cell_length_c                    41.19884387003856 
_cell_angle_alpha                 90.00998701805257 
_cell_angle_beta                  90.02478075921962 
_cell_angle_gamma                 90.01507992775734 
loop_ 
_atom_site_label 
_atom_site_type_symbol 
_atom_site_fract_x 
_atom_site_fract_y 
_atom_site_fract_z 
_atom_site_charge 
O1          O  0.33499182  0.87348256  0.35795502    -0.86800
O2          O  0.38501289  0.82361350  0.36732886    -0.83900
C3          C  0.37203885  0.79037392  0.36736420     0.96600
O4          O  0.35961369  0.77744697  0.34189848    -0.83900
O5          O  0.33317350  0.77410915  0.28108983    -0.86600
C6          C  0.30586010  0.78871550  0.28347227     1.01100
O7          O  0.30247682  0.82280144  0.29313632    -0.79300
O8          O  0.31308072  0.89540061  0.31363595    -0.79500
C9          C  0.31138906  0.88780168  0.34375620     1.01100
O10         O  0.37267162  0.92125506  0.31358245    -0.86800
O11         O  0.41992703  0.86642890  0.31906539    -0.83900
C12         C  0.43422957  0.83462439  0.31584839     0.96600
O13         O  0.41894293  0.80301778  0.31486896    -0.83900
O14         O  0.39033268  0.80503742  0.25513464    -0.86500
C15         C  0.37034474  0.81107267  0.23317936     1.01100
O16         O  0.34550621  0.83006750  0.23967798    -0.79400
O17         O  0.36224468  0.90114155  0.26434242    -0.79500
C18         C  0.37134104  0.92753282  0.28309425     1.01100
Cr19       Cr  0.37710617  0.86947525  0.33732604     1.93700
Cr20       Cr  0.37466504  0.79335927  0.29895618     1.93200
Cr21       Cr  0.33306560  0.86129962  0.27940963     1.39100
O22         O  0.36183547  0.84140337  0.30514223    -1.24600
O23         O  0.63179924  0.92210569  0.31238607    -0.86800
O24         O  0.58471321  0.86719618  0.31809608    -0.83900
C25         C  0.57053620  0.83525393  0.31523251     0.96600
O26         O  0.58597386  0.80376758  0.31454248    -0.83900
O27         O  0.61441800  0.80559905  0.25484007    -0.86600
C28         C  0.63428994  0.81151139  0.23277776     1.01100
O29         O  0.65916818  0.83058528  0.23905487    -0.79300
O30         O  0.64242489  0.90199857  0.26317036    -0.79500
C31         C  0.63305646  0.92827414  0.28189839     1.01100
O32         O  0.66958916  0.87519908  0.35700488    -0.86800
O33         O  0.61977617  0.82503311  0.36672402    -0.83900
C34         C  0.63285473  0.79186135  0.36697933     0.96600
O35         O  0.64546521  0.77889909  0.34163582    -0.83900
O36         O  0.67169212  0.77518422  0.28073042    -0.86500
C37         C  0.69897354  0.78991321  0.28288299     1.01100
O38         O  0.70236869  0.82398240  0.29258877    -0.79400
O39         O  0.69152822  0.89679578  0.31257006    -0.79500
C40         C  0.69313754  0.88958412  0.34276039     1.01100
Cr41       Cr  0.62752123  0.87066283  0.33641385     1.93700
Cr42       Cr  0.63024675  0.79430893  0.29862361     1.93200
Cr43       Cr  0.67165016  0.86227363  0.27856662     1.39100
O44         O  0.64292485  0.84246398  0.30443791    -1.24600
O45         O  0.66916956  0.63356661  0.10729243    -0.86800
O46         O  0.61907767  0.68340027  0.11697468    -0.83900
C47         C  0.63195137  0.71669281  0.11716804     0.96600
O48         O  0.64430590  0.72982513  0.09177527    -0.83900
O49         O  0.67091720  0.73385866  0.03130788    -0.86600
C50         C  0.69828227  0.71944141  0.03368138     1.01100
O51         O  0.70184300  0.68521835  0.04299659    -0.79300
O52         O  0.69128058  0.61217129  0.06290390    -0.79500
C53         C  0.69279150  0.61925288  0.09312921     1.01100
O54         O  0.63148069  0.58645415  0.06245932    -0.86800
O55         O  0.58423503  0.64098002  0.06834094    -0.83900
C56         C  0.56984957  0.67274084  0.06531201     0.96600
O57         O  0.58508933  0.70437873  0.06427168    -0.83900
O58         O  0.61408123  0.70304523  0.50470293    -0.86500
C59         C  0.63417247  0.69727329  0.48281015     1.01100
O60         O  0.65901995  0.67826964  0.48928338    -0.79400
O61         O  0.64230627  0.60668472  0.01332252    -0.79500
C62         C  0.63278898  0.58036531  0.03195052     1.01100
Cr63       Cr  0.62707229  0.63786899  0.08659358     1.93700
Cr64       Cr  0.62944977  0.71427764  0.04870570     1.93200
Cr65       Cr  0.67134377  0.64663852  0.02886028     1.39100
O66         O  0.64238864  0.66621968  0.05461195    -1.24600
O67         O  0.37180882  0.58575742  0.06310871    -0.86800
O68         O  0.41914682  0.64034377  0.06914116    -0.83900
C69         C  0.43343051  0.67219594  0.06610608     0.96600
O70         O  0.41809446  0.70376321  0.06513686    -0.83900
O71         O  0.38960935  0.70219700  0.50536795    -0.86600
C72         C  0.36975364  0.69616298  0.48328055     1.01100
O73         O  0.34485530  0.67718725  0.48958551    -0.79300
O74         O  0.36156276  0.60585922  0.01380228    -0.79500
C75         C  0.37073640  0.57956782  0.03260830     1.01100
O76         O  0.33404513  0.63303452  0.10747660    -0.86800
O77         O  0.38408760  0.68280742  0.11745117    -0.83900
C78         C  0.37117471  0.71606570  0.11761192     0.96600
O79         O  0.35866112  0.72904200  0.09221680    -0.83900
O80         O  0.33239284  0.73279067  0.03133311    -0.86500
C81         C  0.30508162  0.71812485  0.03349675     1.01100
O82         O  0.30165723  0.68397525  0.04297844    -0.79400
O83         O  0.31226204  0.61120295  0.06303039    -0.79500
C84         C  0.31054398  0.61858082  0.09318699     1.01100
Cr85       Cr  0.37621579  0.63720589  0.08713839     1.93700
Cr86       Cr  0.37383287  0.71349792  0.04919948     1.93200
Cr87       Cr  0.33232348  0.64562426  0.02907841     1.39100
O88         O  0.36103527  0.66540357  0.05502528    -1.24600
O89         O  0.16979239  0.87409010  0.40062083    -0.86800
O90         O  0.11952055  0.82479061  0.39050141    -0.83900
C91         C  0.13196691  0.79128193  0.39045319     0.96600
O92         O  0.14396955  0.77789748  0.41595949    -0.83900
O93         O  0.17047331  0.77403935  0.47659237    -0.86600
C94         C  0.19790307  0.78828325  0.47412072     1.01100
O95         O  0.20158194  0.82249014  0.46483057    -0.79300
O96         O  0.19154556  0.89561048  0.44512647    -0.79500
C97         C  0.19339291  0.88814725  0.41502357     1.01100
O98         O  0.13186067  0.92159539  0.44503052    -0.86800
O99         O  0.08433831  0.86736277  0.43848616    -0.83900
C100        C  0.06984458  0.83565906  0.44160879     0.96600
O101        O  0.08496188  0.80398511  0.44308964    -0.83900
O102        O  0.11364142  0.80558503  0.00278396    -0.86500
C103        C  0.13375785  0.81111481  0.02470084     1.01100
O104        O  0.15874905  0.82979448  0.01830981    -0.79400
O105        O  0.14238001  0.90127933  0.49423237    -0.79500
C106        C  0.13304469  0.92763589  0.47555510     1.01100
Cr107      Cr  0.12744563  0.87022101  0.42083892     1.93700
Cr108      Cr  0.12913545  0.79387217  0.45894163     1.93200
Cr109      Cr  0.17129139  0.86124229  0.47888050     1.39100
O110        O  0.14235112  0.84181951  0.45298270    -1.24600
O111        O  0.87187768  0.92211889  0.44585693    -0.86800
O112        O  0.91911962  0.86776204  0.43915411    -0.83900
C113        C  0.93345578  0.83591877  0.44179749     0.96600
O114        O  0.91817799  0.80431124  0.44270164    -0.83900
O115        O  0.88928717  0.80497383  0.00228512    -0.86600
C116        C  0.86910479  0.81018998  0.02417156     1.01100
O117        O  0.84422335  0.82923832  0.01788416    -0.79300
O118        O  0.86076982  0.90147978  0.49485369    -0.79500
C119        C  0.87053288  0.92788459  0.47642006     1.01100
O120        O  0.83414882  0.87568431  0.40050664    -0.86800
O121        O  0.88418935  0.82608708  0.39027618    -0.83900
C122        C  0.87138584  0.79276595  0.38982542     0.96600
O123        O  0.85896993  0.77934743  0.41507955    -0.83900
O124        O  0.83240836  0.77446726  0.47553563    -0.86500
C125        C  0.80507145  0.78896437  0.47319842     1.01100
O126        O  0.80161168  0.82315527  0.46381487    -0.79400
O127        O  0.81206884  0.89656540  0.44505697    -0.79500
C128        C  0.81051011  0.88970513  0.41481652     1.01100
Cr129      Cr  0.87624667  0.87116235  0.42109979     1.93700
Cr130      Cr  0.87386826  0.79426960  0.45824524     1.93200
Cr131      Cr  0.83192462  0.86156920  0.47869045     1.39100
O132        O  0.86098257  0.84242384  0.45282733    -1.24600
O133        O  0.83397461  0.63226096  0.15093875    -0.86800
O134        O  0.88416117  0.68151732  0.14004670    -0.83900
C135        C  0.87137332  0.71484430  0.13955517     0.96600
O136        O  0.85939263  0.72855581  0.16491699    -0.83900
O137        O  0.83330425  0.73428268  0.22540019    -0.86600
C138        C  0.80585365  0.72016935  0.22299560     1.01100
O139        O  0.80207026  0.68578342  0.21419789    -0.79300
O140        O  0.81183529  0.61207848  0.19567453    -0.79500
C141        C  0.81025371  0.61861929  0.16539279     1.01100
O142        O  0.87184406  0.58599976  0.19626256    -0.86800
O143        O  0.91934849  0.64000752  0.18895944    -0.83900
C144        C  0.93379079  0.67180770  0.19155400     0.96600
O145        O  0.91861940  0.70346631  0.19236214    -0.83900
O146        O  0.89003420  0.70358286  0.25216875    -0.86500
C147        C  0.86996341  0.69819725  0.27415770     1.01100
O148        O  0.84496104  0.67937980  0.26793354    -0.79400
O149        O  0.86081696  0.60698705  0.24517389    -0.79500
C150        C  0.87047405  0.58043016  0.22684264     1.01100
Cr151      Cr  0.87626656  0.63673090  0.17122787     1.93700
Cr152      Cr  0.87448822  0.71391820  0.20807417     1.93200
Cr153      Cr  0.83220332  0.64708987  0.22899331     1.39100
O154        O  0.86130926  0.66580066  0.20293709    -1.24600
O155        O  0.13189795  0.58646527  0.19488902    -0.86800
O156        O  0.08457991  0.64075882  0.18845496    -0.83900
C157        C  0.07016016  0.67250684  0.19134561     0.96600
O158        O  0.08534765  0.70420324  0.19246179    -0.83900
O159        O  0.11373271  0.70329407  0.25228498    -0.86600
C160        C  0.13360974  0.69742341  0.27436931     1.01100
O161        O  0.15848008  0.67836629  0.26816365    -0.79300
O162        O  0.14190145  0.60670669  0.24422869    -0.79500
C163        C  0.13277467  0.58036784  0.22540526     1.01100
O164        O  0.16973821  0.63362910  0.15049407    -0.86800
O165        O  0.11970626  0.68310644  0.14028034    -0.83900
C166        C  0.13262339  0.71634463  0.14009065     0.96600
O167        O  0.14488936  0.72954764  0.16551295    -0.83900
O168        O  0.17099078  0.73382431  0.22627543    -0.86500
C169        C  0.19830414  0.71918268  0.22404295     1.01100
O170        O  0.20168610  0.68494088  0.21477736    -0.79400
O171        O  0.19131673  0.61201059  0.19509600    -0.79500
C172        C  0.19314318  0.61918576  0.16491410     1.01100
Cr173      Cr  0.12752082  0.63774273  0.17069526     1.93700
Cr174      Cr  0.12957807  0.71425830  0.20845718     1.93200
Cr175      Cr  0.17111424  0.64656843  0.22886045     1.39100
O176        O  0.14245218  0.66614193  0.20281555    -1.24600
O177        O  0.67004913  0.37510394  0.40036845    -0.86800
O178        O  0.61999346  0.32520806  0.39018961    -0.83900
C179        C  0.63254355  0.29174275  0.39010541     0.96600
O180        O  0.64484565  0.27858467  0.41553775    -0.83900
O181        O  0.67127315  0.27479844  0.47626202    -0.86600
C182        C  0.69861742  0.28935272  0.47405835     1.01100
O183        O  0.70211662  0.32352143  0.46460011    -0.79300
O184        O  0.69165726  0.39666097  0.44498810    -0.79500
C185        C  0.69347754  0.38955786  0.41481028     1.01100
O186        O  0.63200334  0.42198771  0.44482906    -0.86800
O187        O  0.58471146  0.36751484  0.43837015    -0.83900
C188        C  0.57032623  0.33573850  0.44146315     0.96600
O189        O  0.58557810  0.30413049  0.44269831    -0.83900
O190        O  0.61419785  0.30569347  0.00237519    -0.86500
C191        C  0.63419546  0.31132342  0.02438398     1.01100
O192        O  0.65911924  0.33023945  0.01808597    -0.79400
O193        O  0.64247321  0.40198477  0.49415703    -0.79500
C194        C  0.63305265  0.42817740  0.47533262     1.01100
Cr195      Cr  0.62775863  0.37069412  0.42060536     1.93700
Cr196      Cr  0.62985059  0.29430164  0.45853876     1.93200
Cr197      Cr  0.67158741  0.36201507  0.47871279     1.39100
O198        O  0.64281179  0.34238321  0.45271497    -1.24600
O199        O  0.37185117  0.42153110  0.44518329    -0.86800
O200        O  0.41932361  0.36726412  0.43870353    -0.83900
C201        C  0.43377188  0.33554993  0.44187924     0.96600
O202        O  0.41857718  0.30389769  0.44334819    -0.83900
O203        O  0.38946962  0.30517847  0.00291490    -0.86600
C204        C  0.36917022  0.31049718  0.02467999     1.01100
O205        O  0.34433624  0.32946778  0.01815850    -0.79300
O206        O  0.36111898  0.40116500  0.49433428    -0.79500
C207        C  0.37051512  0.42754595  0.47570447     1.01100
O208        O  0.33405421  0.37443734  0.40046393    -0.86800
O209        O  0.38413765  0.32487135  0.39043066    -0.83900
C210        C  0.37146771  0.29147450  0.39029352     0.96600
O211        O  0.35948802  0.27808225  0.41578542    -0.83900
O212        O  0.33269245  0.27410070  0.47612198    -0.86500
C213        C  0.30530233  0.28845380  0.47359421     1.01100
O214        O  0.30174386  0.32271247  0.46437089    -0.79400
O215        O  0.31215754  0.39595427  0.44488328    -0.79500
C216        C  0.31051606  0.38884134  0.41469066     1.01100
Cr217      Cr  0.37626854  0.37025720  0.42088881     1.93700
Cr218      Cr  0.37421744  0.29382753  0.45886542     1.93200
Cr219      Cr  0.33213409  0.36127540  0.47870510     1.39100
O220        O  0.36115405  0.34183366  0.45292791    -1.24600
O221        O  0.33355405  0.13233637  0.15067061    -0.86800
O222        O  0.38353259  0.18184252  0.14035980    -0.83900
C223        C  0.37055397  0.21505027  0.14001423     0.96600
O224        O  0.35845340  0.22848174  0.16543651    -0.83900
O225        O  0.33240106  0.23324366  0.22618169    -0.86600
C226        C  0.30500828  0.21889114  0.22392072     1.01100
O227        O  0.30136696  0.18469226  0.21458712    -0.79300
O228        O  0.31146057  0.11136522  0.19521037    -0.79500
C229        C  0.30998781  0.11808920  0.16493565     1.01100
O230        O  0.37118875  0.08559379  0.19552019    -0.86800
O231        O  0.41873536  0.13977861  0.18887428    -0.83900
C232        C  0.43314158  0.17158660  0.19159873     0.96600
O233        O  0.41788442  0.20320709  0.19264326    -0.83900
O234        O  0.38927805  0.20244042  0.25248079    -0.86500
C235        C  0.36923985  0.19690223  0.27448121     1.01100
O236        O  0.34431567  0.17792937  0.26822604    -0.79400
O237        O  0.36049789  0.10593410  0.24469906    -0.79500
C238        C  0.36993519  0.07960487  0.22603956     1.01100
Cr239      Cr  0.37569753  0.13665544  0.17105359     1.93700
Cr240      Cr  0.37366242  0.21334499  0.20851226     1.93200
Cr241      Cr  0.33167165  0.14602915  0.22894235     1.39100
O242        O  0.36063552  0.16525476  0.20299419    -1.24600
O243        O  0.63169083  0.08636667  0.19469153    -0.86800
O244        O  0.58418454  0.14053706  0.18823640    -0.83900
C245        C  0.56971308  0.17224464  0.19131867     0.96600
O246        O  0.58488935  0.20395199  0.19257352    -0.83900
O247        O  0.61365850  0.20321070  0.25219429    -0.86600
C248        C  0.63357048  0.19736744  0.27424495     1.01100
O249        O  0.65844119  0.17835234  0.26798248    -0.79300
O250        O  0.64164523  0.10681874  0.24397010    -0.79500
C251        C  0.63262103  0.08036652  0.22521781     1.01100
O252        O  0.66953412  0.13353292  0.15027283    -0.86800
O253        O  0.61919158  0.18295334  0.13994408    -0.83900
C254        C  0.63199019  0.21626629  0.13977706     0.96600
O255        O  0.64425478  0.22946565  0.16519792    -0.83900
O256        O  0.67079417  0.23380067  0.22567898    -0.86500
C257        C  0.69817575  0.21930923  0.22345026     1.01100
O258        O  0.70168571  0.18486836  0.21469978    -0.79400
O259        O  0.69111297  0.11191223  0.19487696    -0.79500
C260        C  0.69298532  0.11913223  0.16470376     1.01100
Cr261      Cr  0.62721717  0.13761927  0.17046083     1.93700
Cr262      Cr  0.62925060  0.21412608  0.20824509     1.93200
Cr263      Cr  0.67094566  0.14654304  0.22863770     1.39100
O264        O  0.64221912  0.16607799  0.20256115    -1.24600
O265        O  0.83449675  0.37413424  0.35792015    -0.86800
O266        O  0.88454617  0.32406460  0.36741324    -0.83900
C267        C  0.87173244  0.29074723  0.36731824     0.96600
O268        O  0.85918271  0.27800945  0.34183898    -0.83900
O269        O  0.83268525  0.27515451  0.28089133    -0.86600
C270        C  0.80541711  0.28999544  0.28284470     1.01100
O271        O  0.80206111  0.32407209  0.29261704    -0.79300
O272        O  0.81302126  0.39662649  0.31353901    -0.79500
C273        C  0.81117413  0.38905701  0.34365422     1.01100
O274        O  0.87243517  0.42184988  0.31407360    -0.86800
O275        O  0.91949644  0.36706602  0.31945999    -0.83900
C276        C  0.93377505  0.33527964  0.31617767     0.96600
O277        O  0.91848050  0.30369243  0.31483842    -0.83900
O278        O  0.88991326  0.30591199  0.25510185    -0.86500
C279        C  0.87002415  0.31213303  0.23308547     1.01100
O280        O  0.84529821  0.33134938  0.23950807    -0.79400
O281        O  0.86250268  0.40233193  0.26454291    -0.79500
C282        C  0.87164194  0.42839506  0.28362889     1.01100
Cr283      Cr  0.87667284  0.37002803  0.33754149     1.93700
Cr284      Cr  0.87420237  0.29414650  0.29888825     1.93200
Cr285      Cr  0.83295791  0.36250620  0.27929322     1.39100
O286        O  0.86146979  0.34221091  0.30516629    -1.24600
O287        O  0.13148276  0.42208408  0.31261995    -0.86800
O288        O  0.08432325  0.36740386  0.31899783    -0.83900
C289        C  0.07000171  0.33558035  0.31601920     0.96600
O290        O  0.08526418  0.30400809  0.31475563    -0.83900
O291        O  0.11377055  0.30565403  0.25489226    -0.86600
C292        C  0.13382102  0.31131098  0.23293252     1.01100
O293        O  0.15866790  0.33035162  0.23929292    -0.79300
O294        O  0.14200783  0.40184477  0.26340863    -0.79500
C295        C  0.13268930  0.42819539  0.28210363     1.01100
O296        O  0.16955464  0.37499662  0.35711121    -0.86800
O297        O  0.11966554  0.32507866  0.36720844    -0.83900
C298        C  0.13231689  0.29165838  0.36730181     0.96600
O299        O  0.14446135  0.27843590  0.34180773    -0.83900
O300        O  0.17077321  0.27479536  0.28108366    -0.86500
C301        C  0.19813050  0.28925379  0.28342399     1.01100
O302        O  0.20171053  0.32347592  0.29273255    -0.79400
O303        O  0.19127617  0.39651394  0.31257589    -0.79500
C304        C  0.19304448  0.38933514  0.34275019     1.01100
Cr305      Cr  0.12731610  0.37063742  0.33680664     1.93700
Cr306      Cr  0.12942353  0.29424011  0.29880008     1.93200
Cr307      Cr  0.17114977  0.36198256  0.27875080     1.39100
O308        O  0.14238578  0.34232164  0.30469539    -1.24600
O309        O  0.16977320  0.13269618  0.10695764    -0.86800
O310        O  0.11995960  0.18246288  0.11755500    -0.83900
C311        C  0.13284653  0.21572828  0.11770135     0.96600
O312        O  0.14506173  0.22888059  0.09223199    -0.83900
O313        O  0.17095735  0.23306576  0.03129348    -0.86600
C314        C  0.19824870  0.21834179  0.03326629     1.01100
O315        O  0.20166832  0.18413638  0.04263043    -0.79300
O316        O  0.19125380  0.11110987  0.06229721    -0.79500
C317        C  0.19308753  0.11809703  0.09251047     1.01100
O318        O  0.13162106  0.08586518  0.06270842    -0.86800
O319        O  0.08441755  0.14034199  0.06949761    -0.83900
C320        C  0.07013705  0.17220911  0.06675564     0.96600
O321        O  0.08546983  0.20377155  0.06542347    -0.83900
O322        O  0.11369647  0.20283577  0.50530906    -0.86500
C323        C  0.13356136  0.19696231  0.48319164     1.01100
O324        O  0.15832053  0.17765730  0.48935556    -0.79400
O325        O  0.14164756  0.10599978  0.01334149    -0.79500
C326        C  0.13250532  0.07972094  0.03220177     1.01100
Cr327      Cr  0.12749348  0.13710144  0.08697998     1.93700
Cr328      Cr  0.12962342  0.21363565  0.04923975     1.93200
Cr329      Cr  0.17096900  0.14580003  0.02864830     1.39100
O330        O  0.14239771  0.16545349  0.05480315    -1.24600
O331        O  0.87231329  0.08635325  0.06383688    -0.86800
O332        O  0.91941476  0.14107063  0.06974440    -0.83900
C333        C  0.93381325  0.17280410  0.06660161     0.96600
O334        O  0.91860599  0.20442289  0.06503654    -0.83900
O335        O  0.89018519  0.20224559  0.50516812    -0.86600
C336        C  0.87030294  0.19617306  0.48311207     1.01100
O337        O  0.84541907  0.17722413  0.48951285    -0.79300
O338        O  0.86228529  0.10606617  0.01437769    -0.79500
C339        C  0.87148953  0.07993191  0.03335655     1.01100
O340        O  0.83417917  0.13401508  0.10776617    -0.86800
O341        O  0.88413836  0.18405913  0.11750667    -0.83900
C342        C  0.87142676  0.21743458  0.11734281     0.96600
O343        O  0.85924287  0.23034211  0.09176361    -0.83900
O344        O  0.83301746  0.23326717  0.03103564    -0.86500
C345        C  0.80565879  0.21879156  0.03340408     1.01100
O346        O  0.80210138  0.18452968  0.04263935    -0.79400
O347        O  0.81270552  0.11182078  0.06329298    -0.79500
C348        C  0.81081337  0.11929639  0.09342583     1.01100
Cr349      Cr  0.87645015  0.13812716  0.08752817     1.93700
Cr350      Cr  0.87440339  0.21407400  0.04893200     1.93200
Cr351      Cr  0.83287414  0.14599196  0.02919927     1.39100
O352        O  0.86144934  0.16606267  0.05514672    -1.24600
C353        C  0.01829497  0.13767649  0.06679382    -0.14800
C354        C  0.03526319  0.17262396  0.06614163     0.07300
C355        C  0.01856637  0.20776024  0.06515633    -0.14800
C356        C  0.98560759  0.20791962  0.06502690    -0.14800
C357        C  0.96868291  0.17294219  0.06592147     0.07300
C358        C  0.98542092  0.13783553  0.06666719    -0.14800
H359        H  0.03041070  0.11008907  0.06748606     0.11300
H360        H  0.03095552  0.23516988  0.06466005     0.11300
H361        H  0.97339991  0.23544106  0.06446524     0.11300
H362        H  0.97312046  0.11035998  0.06728323     0.11300
C363        C  0.15263673  0.29659931  0.17659564    -0.14800
C364        C  0.13084110  0.29030642  0.20166835     0.07300
C365        C  0.10929443  0.25946130  0.19864366    -0.14800
C366        C  0.11022025  0.23474419  0.17170804    -0.14800
C367        C  0.13237360  0.24069892  0.14695483     0.07300
C368        C  0.15323531  0.27226370  0.14946136    -0.14800
H369        H  0.16978287  0.31972468  0.17833135     0.11300
H370        H  0.09245912  0.25343860  0.21772787     0.11300
H371        H  0.09357125  0.21105576  0.17021778     0.11300
H372        H  0.17049104  0.27775778  0.13065552     0.11300
C373        C  0.15194602  0.23446745  0.39889111    -0.14800
C374        C  0.13174366  0.26670473  0.39661635     0.07300
C375        C  0.11030211  0.27362766  0.42186300    -0.14800
C376        C  0.10949223  0.24929347  0.44905293    -0.14800
C377        C  0.13043197  0.21780929  0.45184295     0.07300
C378        C  0.15147959  0.21050725  0.42628226    -0.14800
H379        H  0.16864274  0.22818329  0.37972760     0.11300
H380        H  0.09417098  0.29785549  0.42061271     0.11300
H381        H  0.09325701  0.25610491  0.46849980     0.11300
H382        H  0.16814039  0.18684398  0.42780419     0.11300
C383        C  0.89496992  0.26118297  0.19826954    -0.14800
C384        C  0.87315567  0.29167763  0.20156771     0.07300
C385        C  0.85138480  0.29809192  0.17645978    -0.14800
C386        C  0.85100127  0.27406645  0.14909168    -0.14800
C387        C  0.87200346  0.24266035  0.14645432     0.07300
C388        C  0.89423266  0.23677219  0.17115164    -0.14800
H389        H  0.91185370  0.25511584  0.21731142     0.11300
H390        H  0.83407243  0.32099195  0.17837127     0.11300
H391        H  0.83371588  0.27953823  0.13029483     0.11300
H392        H  0.91101944  0.21326105  0.16953886     0.11300
C393        C  0.85160499  0.23395037  0.39900045    -0.14800
C394        C  0.87253194  0.26543382  0.39638399     0.07300
C395        C  0.89477826  0.27135291  0.42108715    -0.14800
C396        C  0.89549269  0.24696919  0.44823999    -0.14800
C397        C  0.87364480  0.21648725  0.45154698     0.07300
C398        C  0.85197753  0.20995989  0.42637063    -0.14800
H399        H  0.83433533  0.22841651  0.38020201     0.11300
H400        H  0.91153767  0.29491143  0.41948805     0.11300
H401        H  0.91233082  0.25308547  0.46732090     0.11300
H402        H  0.83468089  0.18702786  0.42825487     0.11300
C403        C  0.98544734  0.29999694  0.31482008    -0.14800
C404        C  0.96861170  0.33503646  0.31511190     0.07300
C405        C  0.98540849  0.37011747  0.31494292    -0.14800
C406        C  0.01827248  0.37020093  0.31495423    -0.14800
C407        C  0.03515455  0.33520779  0.31511346     0.07300
C408        C  0.01839869  0.30008031  0.31483219    -0.14800
H409        H  0.97317694  0.27249702  0.31492924     0.11300
H410        H  0.97316244  0.39763024  0.31499467     0.11300
H411        H  0.03045105  0.39776671  0.31500560     0.11300
H412        H  0.03073329  0.27263444  0.31493289     0.11300
C413        C  0.75199778  0.11107761  0.16301110    -0.14800
C414        C  0.72296879  0.11250882  0.14654197     0.07300
C415        C  0.72329148  0.11215989  0.11236112    -0.14800
C416        C  0.75183842  0.11180832  0.09513466    -0.14800
C417        C  0.78086620  0.11258790  0.11160349     0.07300
C418        C  0.78056335  0.11151323  0.14577918    -0.14800
H419        H  0.75268355  0.11173922  0.18928789     0.11300
H420        H  0.70142150  0.11342501  0.09887570     0.11300
H421        H  0.75115216  0.11306638  0.06887388     0.11300
H422        H  0.80245849  0.11225456  0.15925399     0.11300
C423        C  0.75606544  0.22432115  0.23097701    -0.14800
C424        C  0.72583579  0.23997706  0.23577684     0.07300
C425        C  0.72193697  0.27137368  0.25691368    -0.14800
C426        C  0.74773796  0.28639174  0.27349724    -0.14800
C427        C  0.77788433  0.27036073  0.26910885     0.07300
C428        C  0.78188289  0.23936498  0.24755345    -0.14800
H429        H  0.75965686  0.19987660  0.21490123     0.11300
H430        H  0.69881802  0.28346461  0.26150822     0.11300
H431        H  0.74410950  0.31077116  0.28962719     0.11300
H432        H  0.80500799  0.22724596  0.24301893     0.11300
C433        C  0.48482751  0.20682720  0.19571567    -0.14800
C434        C  0.46807558  0.17190337  0.19240815     0.07300
C435        C  0.48506499  0.13714244  0.18945472    -0.14800
C436        C  0.51797407  0.13731763  0.18940404    -0.14800
C437        C  0.53477057  0.17225859  0.19229660     0.07300
C438        C  0.51781580  0.20700268  0.19567041    -0.14800
H439        H  0.47245364  0.23409121  0.19815203     0.11300
H440        H  0.47293674  0.10970783  0.18692226     0.11300
H441        H  0.53025549  0.11000293  0.18683651     0.11300
H442        H  0.53002778  0.23439097  0.19806504     0.11300
C443        C  0.28038271  0.11080467  0.11219877    -0.14800
C444        C  0.28031236  0.11110706  0.14639468     0.07300
C445        C  0.25115392  0.10940589  0.16251864    -0.14800
C446        C  0.22281006  0.10972564  0.14495927    -0.14800
C447        C  0.22286583  0.11103234  0.11079821     0.07300
C448        C  0.25202858  0.11040953  0.09462550    -0.14800
H449        H  0.30239213  0.11225274  0.09898542     0.11300
H450        H  0.25017935  0.11000267  0.18878494     0.11300
H451        H  0.20078464  0.11032082  0.15819019     0.11300
H452        H  0.25295986  0.11183975  0.06837746     0.11300
C453        C  0.28179052  0.26856081  0.26010733    -0.14800
C454        C  0.27761738  0.23918306  0.23703743     0.07300
C455        C  0.24724358  0.22481344  0.23079796    -0.14800
C456        C  0.22140910  0.23955328  0.24742205    -0.14800
C457        C  0.22556696  0.26897401  0.27043965     0.07300
C458        C  0.25594099  0.28332917  0.27672167    -0.14800
H459        H  0.30508128  0.27934010  0.26597537     0.11300
H460        H  0.24351799  0.20177799  0.21334657     0.11300
H461        H  0.19812612  0.22874772  0.24155528     0.11300
H462        H  0.25964626  0.30637686  0.29417048     0.11300
C463        C  0.39335205  0.27316027  0.33578761    -0.14800
C464        C  0.37170056  0.26671503  0.36091454     0.07300
C465        C  0.35092733  0.23503818  0.35852342    -0.14800
C466        C  0.35112242  0.21106437  0.33116088    -0.14800
C467        C  0.37245322  0.21780429  0.30575905     0.07300
C468        C  0.39388732  0.24879378  0.30862057    -0.14800
H469        H  0.40988851  0.29697722  0.33714925     0.11300
H470        H  0.33402548  0.22919283  0.37759568     0.11300
H471        H  0.33407081  0.18781961  0.32955182     0.11300
H472        H  0.41034513  0.25517116  0.28926905     0.11300
C473        C  0.34953152  0.29468615  0.08050190    -0.14800
C474        C  0.37192325  0.28924874  0.05584997     0.07300
C475        C  0.39406612  0.25910291  0.05920147    -0.14800
C476        C  0.39331282  0.23439636  0.08615131    -0.14800
C477        C  0.37071501  0.23967315  0.11057623     0.07300
C478        C  0.34909129  0.27037595  0.10764115    -0.14800
H479        H  0.33188092  0.31717644  0.07847730     0.11300
H480        H  0.41135130  0.25369893  0.04041561     0.11300
H481        H  0.41049929  0.21134778  0.08797214     0.11300
H482        H  0.33142612  0.27525832  0.12616338     0.11300
C483        C  0.24747702  0.28323779  0.48091680    -0.14800
C484        C  0.27775101  0.26802939  0.48629778     0.07300
C485        C  0.28177205  0.23753272  0.00832312    -0.14800
C486        C  0.25597070  0.22278521  0.02502107    -0.14800
C487        C  0.22573998  0.23821204  0.01985523     0.07300
C488        C  0.22166809  0.26848222  0.49761918    -0.14800
H489        H  0.24383104  0.30705228  0.46420729     0.11300
H490        H  0.30495617  0.22591643  0.01344034     0.11300
H491        H  0.25962974  0.19899842  0.04175646     0.11300
H492        H  0.19847540  0.28009958  0.49253446     0.11300
C493        C  0.25160937  0.39773485  0.41253161    -0.14800
C494        C  0.28069620  0.39558453  0.39626122     0.07300
C495        C  0.28054704  0.39535982  0.36207313    -0.14800
C496        C  0.25208936  0.39586728  0.34466888    -0.14800
C497        C  0.22298418  0.39586862  0.36098050     0.07300
C498        C  0.22313493  0.39748313  0.39513443    -0.14800
H499        H  0.25078231  0.39752649  0.43880725     0.11300
H500        H  0.30246503  0.39351415  0.34873557     0.11300
H501        H  0.25287883  0.39413182  0.31842922     0.11300
H502        H  0.20116955  0.39731838  0.40848134     0.11300
C503        C  0.72200105  0.23912352  0.00965357    -0.14800
C504        C  0.72609719  0.26933016  0.48735256     0.07300
C505        C  0.75637237  0.28453078  0.48200374    -0.14800
C506        C  0.78218542  0.26964246  0.49860017    -0.14800
C507        C  0.77813187  0.23921751  0.02068507     0.07300
C508        C  0.74782679  0.22421166  0.02624126    -0.14800
H509        H  0.69878195  0.22768298  0.01488065     0.11300
H510        H  0.76005559  0.30826078  0.46521975     0.11300
H511        H  0.80539651  0.28111056  0.49337418     0.11300
H512        H  0.74416293  0.20047269  0.04302232     0.11300
C513        C  0.75246783  0.39663756  0.41325864    -0.14800
C514        C  0.72345287  0.39627360  0.39673892     0.07300
C515        C  0.72377438  0.39766292  0.36258770    -0.14800
C516        C  0.75233728  0.39790185  0.34539805    -0.14800
C517        C  0.78132390  0.39595006  0.36188577     0.07300
C518        C  0.78101952  0.39607485  0.39606102    -0.14800
H519        H  0.75312125  0.39515814  0.43951230     0.11300
H520        H  0.70188713  0.39726768  0.34909193     0.11300
H521        H  0.75166208  0.39745461  0.31911750     0.11300
H522        H  0.80287903  0.39444278  0.40954240     0.11300
C523        C  0.61044984  0.27395957  0.33552658    -0.14800
C524        C  0.63167572  0.26666345  0.36090239     0.07300
C525        C  0.65141296  0.23397202  0.35885306    -0.14800
C526        C  0.65088484  0.21006319  0.33144668    -0.14800
C527        C  0.63024054  0.21790953  0.30566339     0.07300
C528        C  0.60956717  0.24967536  0.30832155    -0.14800
H529        H  0.59462118  0.29849879  0.33664044     0.11300
H530        H  0.66786248  0.22733408  0.37816969     0.11300
H531        H  0.66724635  0.18607565  0.33004937     0.11300
H532        H  0.59358872  0.25681980  0.28871847     0.11300
C533        C  0.65310497  0.29608225  0.08054310    -0.14800
C534        C  0.63092185  0.29055791  0.05570286     0.07300
C535        C  0.60849730  0.26071004  0.05907050    -0.14800
C536        C  0.60899581  0.23610282  0.08609187    -0.14800
C537        C  0.63162640  0.24119943  0.11053480     0.07300
C538        C  0.65329121  0.27188494  0.10773568    -0.14800
H539        H  0.67088437  0.31843992  0.07856596     0.11300
H540        H  0.59127288  0.25535883  0.04019673     0.11300
H541        H  0.59170250  0.21315361  0.08787363     0.11300
H542        H  0.67091005  0.27671342  0.12632746     0.11300
C543        C  0.51859091  0.30064527  0.44604894    -0.14800
C544        C  0.53540277  0.33548987  0.44251345     0.07300
C545        C  0.51848056  0.37029912  0.43955244    -0.14800
C546        C  0.48557886  0.37025820  0.43965057    -0.14800
C547        C  0.46871459  0.33540747  0.44273403     0.07300
C548        C  0.48559933  0.30060513  0.44615485    -0.14800
H549        H  0.53091483  0.27334879  0.94851666     0.11300
H550        H  0.53065608  0.39767772  0.43687756     0.11300
H551        H  0.47335501  0.39760593  0.43704353     0.11300
H552        H  0.47332895  0.27327570  0.94869327     0.11300
C553        C  0.12628937  0.50848527  0.21974949    -0.14800
C554        C  0.12620683  0.54159338  0.23941516     0.07300
C555        C  0.12362143  0.53693231  0.27333449    -0.14800
C556        C  0.12355248  0.49997403  0.28737737    -0.14800
C557        C  0.12620889  0.46690710  0.26779804     0.07300
C558        C  0.12633458  0.47158707  0.23376970    -0.14800
H559        H  0.12818348  0.51104242  0.19360756     0.11300
H560        H  0.12316138  0.56194698  0.28918727     0.11300
H561        H  0.12322154  0.49741637  0.31358662     0.11300
H562        H  0.12802943  0.44668914  0.21788391     0.11300
C563        C  0.88068107  0.50896112  0.22198307    -0.14800
C564        C  0.87733087  0.54198560  0.24148190     0.07300
C565        C  0.87712278  0.53738006  0.27552432    -0.14800
C566        C  0.87764457  0.50044910  0.28958376    -0.14800
C567        C  0.87823452  0.46732662  0.26990567     0.07300
C568        C  0.88106368  0.47205313  0.23602928    -0.14800
H569        H  0.88118189  0.51145832  0.19577172     0.11300
H570        H  0.87496885  0.56229072  0.29133813     0.11300
H571        H  0.87560049  0.49782893  0.31571122     0.11300
H572        H  0.88197301  0.44706831  0.22016698     0.11300
C573        C  0.98539465  0.70705990  0.19584216    -0.14800
C574        C  0.96867842  0.67211780  0.19246013     0.07300
C575        C  0.98564723  0.63737063  0.18944815    -0.14800
C576        C  0.01852915  0.63757744  0.18935108    -0.14800
C577        C  0.03528259  0.67253437  0.19228702     0.07300
C578        C  0.01835905  0.70726668  0.19575247    -0.14800
H579        H  0.97301239  0.73430888  0.19834905     0.11300
H580        H  0.97352553  0.60993959  0.18686755     0.11300
H581        H  0.03081919  0.61027661  0.18671620     0.11300
H582        H  0.03057137  0.73465150  0.19819957     0.11300
C583        C  0.87963666  0.99952276  0.47135065    -0.14800
C584        C  0.87748328  0.96640589  0.49089801     0.07300
C585        C  0.87843117  0.97096866  0.02493395    -0.14800
C586        C  0.87885962  0.00791320  0.03903668    -0.14800
C587        C  0.87818306  0.04108076  0.01940530     0.07300
C588        C  0.87993383  0.03641669  0.48543152    -0.14800
H589        H  0.87920383  0.99707048  0.44513035     0.11300
H590        H  0.87724816  0.94597076  0.04075392     0.11300
H591        H  0.87774536  0.01045700  0.06523050     0.11300
H592        H  0.87988896  0.06140455  0.46955344     0.11300
C593        C  0.85115379  0.73645957  0.35788359    -0.14800
C594        C  0.87199271  0.76802949  0.36046688     0.07300
C595        C  0.89406872  0.77421006  0.33567707    -0.14800
C596        C  0.89481674  0.74977662  0.30854130    -0.14800
C597        C  0.87320367  0.71900278  0.30544738     0.07300
C598        C  0.85160236  0.71241547  0.33061574    -0.14800
H599        H  0.83398059  0.73075910  0.37672329     0.11300
H600        H  0.91072462  0.79789493  0.33725914     0.11300
H601        H  0.91153207  0.75595795  0.28938113     0.11300
H602        H  0.83445634  0.68928110  0.32885346     0.11300
C603        C  0.85024094  0.79461340  0.08027487    -0.14800
C604        C  0.87214259  0.78883785  0.05525108     0.07300
C605        C  0.89411052  0.75841688  0.05825114    -0.14800
C606        C  0.89360983  0.73374941  0.08525097    -0.14800
C607        C  0.87143246  0.73934109  0.11003218     0.07300
C608        C  0.85004880  0.77035446  0.10742360    -0.14800
H609        H  0.83276587  0.81736253  0.07855099     0.11300
H610        H  0.91104066  0.75278866  0.03917219     0.11300
H611        H  0.91063805  0.71047681  0.08681803     0.11300
H612        H  0.83272970  0.77553266  0.12622641     0.11300
C613        C  0.12704787  0.97094915  0.02393189    -0.14800
C614        C  0.12644904  0.96625908  0.48991320     0.07300
C615        C  0.12307771  0.99924701  0.47036629    -0.14800
C616        C  0.12292823  0.03620757  0.98440600    -0.14800
C617        C  0.12600171  0.04090951  0.01827771     0.07300
C618        C  0.12678591  0.00783171  0.03794214    -0.14800
H619        H  0.12928890  0.94610673  0.03979950     0.11300
H620        H  0.12233402  0.99665606  0.44416309     0.11300
H621        H  0.12193026  0.06121441  0.46857996     0.11300
H622        H  0.12909997  0.01043505  0.06405108     0.11300
C623        C  0.15119526  0.71045918  0.33138437    -0.14800
C624        C  0.13029510  0.71799805  0.30575489     0.07300
C625        C  0.10933106  0.74945612  0.30854522    -0.14800
C626        C  0.11003636  0.77360610  0.33583054    -0.14800
C627        C  0.13138320  0.76647186  0.36112784     0.07300
C628        C  0.15155621  0.73422905  0.35886001    -0.14800
H629        H  0.16783950  0.68678073  0.32984253     0.11300
H630        H  0.09319699  0.75641063  0.28902949     0.11300
H631        H  0.09393208  0.79786447  0.33710407     0.11300
H632        H  0.16817121  0.72782037  0.37808037     0.11300
C633        C  0.15184294  0.79748119  0.08141020    -0.14800
C634        C  0.13065623  0.79031365  0.05595198     0.07300
C635        C  0.10969516  0.75884505  0.05862452    -0.14800
C636        C  0.11059964  0.73436240  0.08566033    -0.14800
C637        C  0.13213637  0.74119300  0.11083274     0.07300
C638        C  0.15241017  0.77336667  0.10864898    -0.14800
H639        H  0.16852615  0.82113426  0.07990848     0.11300
H640        H  0.09339242  0.75214750  0.03919150     0.11300
H641        H  0.09444579  0.71014564  0.08687450     0.11300
H642        H  0.16919057  0.77951900  0.12778309     0.11300
C643        C  0.01808111  0.80064459  0.44555877    -0.14800
C644        C  0.03495020  0.83550830  0.44244961     0.07300
C645        C  0.01812830  0.87040653  0.43976952    -0.14800
C646        C  0.98524902  0.87046170  0.43986643    -0.14800
C647        C  0.96833851  0.83561690  0.44261575     0.07300
C648        C  0.98511074  0.80069781  0.44563491    -0.14800
H649        H  0.03034314  0.77327197  0.94774617     0.11300
H650        H  0.03036423  0.89778082  0.43738776     0.11300
H651        H  0.97308158  0.89788389  0.43753427     0.11300
H652        H  0.97277406  0.77337230  0.94787042     0.11300
C653        C  0.37908148  0.53621445  0.48454709    -0.14800
C654        C  0.37713590  0.54080328  0.01852188     0.07300
C655        C  0.37751251  0.50766945  0.03814550    -0.14800
C656        C  0.37737891  0.47079302  0.02406111    -0.14800
C657        C  0.37695807  0.46621210  0.49002878     0.07300
C658        C  0.37905574  0.49931599  0.47045487    -0.14800
H659        H  0.37913296  0.56123646  0.46870460     0.11300
H660        H  0.37608661  0.51018365  0.06432605     0.11300
H661        H  0.37609201  0.44582830  0.03990724     0.11300
H662        H  0.37889731  0.49682014  0.44423206     0.11300
C663        C  0.28156886  0.76800023  0.49770901    -0.14800
C664        C  0.27754261  0.73799592  0.02019329     0.07300
C665        C  0.24727759  0.72283329  0.02573894    -0.14800
C666        C  0.22139683  0.73760435  0.00915565    -0.14800
C667        C  0.22540341  0.76781165  0.48685030     0.07300
C668        C  0.25570162  0.78274595  0.48111116    -0.14800
H669        H  0.30477035  0.77939965  0.49233798     0.11300
H670        H  0.24365764  0.69924902  0.04268208     0.11300
H671        H  0.19818916  0.72623384  0.01454803     0.11300
H672        H  0.25933303  0.80633621  0.46417687     0.11300
C673        C  0.25160622  0.61040801  0.09519203    -0.14800
C674        C  0.28068564  0.61212362  0.11152142     0.07300
C675        C  0.28054392  0.61230587  0.14570431    -0.14800
C676        C  0.25209705  0.61210530  0.16307018    -0.14800
C677        C  0.22301691  0.61245824  0.14671504     0.07300
C678        C  0.22314364  0.61095737  0.11255468    -0.14800
H679        H  0.25079863  0.61072414  0.06891485     0.11300
H680        H  0.30247348  0.61386563  0.15906857     0.11300
H681        H  0.25289109  0.61377120  0.18931257     0.11300
H682        H  0.20118346  0.61142411  0.09918294     0.11300
C683        C  0.62633564  0.53696694  0.98359879    -0.14800
C684        C  0.62617718  0.54168301  0.01762116    -0.05500
C685        C  0.62338405  0.50863919  0.03720614    -0.14800
C686        C  0.62352586  0.47165422  0.02319396    -0.14800
C687        C  0.62627907  0.46694672  0.48929497     0.07300
C688        C  0.62633367  0.50003843  0.46960560    -0.14800
H689        H  0.62807513  0.56185163  0.96771001     0.11300
H690        H  0.62295886  0.51123003  0.06341674     0.11300
H691        H  0.62302676  0.44665833  0.03905745     0.11300
H692        H  0.62830224  0.49744852  0.44346904     0.11300
C693        C  0.74730198  0.78381964  0.48083156    -0.14800
C694        C  0.77762407  0.76898858  0.48656187     0.07300
C695        C  0.78182559  0.73951561  0.00952410    -0.14800
C696        C  0.75607574  0.72503461  0.02647616    -0.14800
C697        C  0.72573077  0.73971454  0.02061761     0.07300
C698        C  0.72155053  0.76933840  0.49778461    -0.14800
H699        H  0.74355757  0.80699512  0.46352255     0.11300
H700        H  0.80508984  0.72841024  0.01504738     0.11300
H701        H  0.75982333  0.70187091  0.04379474     0.11300
H702        H  0.69828953  0.78045951  0.49227116     0.11300
C703        C  0.72267575  0.61218001  0.14584744    -0.14800
C704        C  0.72259264  0.61255068  0.11165097     0.07300
C705        C  0.75173464  0.61098996  0.09544958    -0.14800
C706        C  0.78017290  0.61117843  0.11290938    -0.14800
C707        C  0.78028716  0.61218152  0.14708407     0.07300
C708        C  0.75112556  0.61163118  0.16332257    -0.14800
H709        H  0.70070978  0.61355643  0.15914313     0.11300
H710        H  0.75262460  0.61168957  0.06918259     0.11300
H711        H  0.80214381  0.61178687  0.09958670     0.11300
H712        H  0.75027011  0.61285517  0.18957992     0.11300
C713        C  0.51816659  0.63779989  0.06510013    -0.14800
C714        C  0.53494847  0.67288794  0.06426558     0.07300
C715        C  0.51802282  0.70785695  0.06311112    -0.14800
C716        C  0.48504616  0.70771213  0.06338517    -0.14800
C717        C  0.46831648  0.67259790  0.06480542     0.07300
C718        C  0.48528041  0.63765599  0.06538013    -0.14800
H719        H  0.53044531  0.61032458  0.06583326     0.11300
H720        H  0.53024643  0.73537170  0.06236506     0.11300
H721        H  0.47267225  0.73512352  0.06281125     0.11300
H722        H  0.47315155  0.61007977  0.06629369     0.11300
C723        C  0.62553589  0.97161936  0.23372683    -0.14800
C724        C  0.62655398  0.96698489  0.26773558     0.07300
C725        C  0.62501633  0.00006450  0.28739646    -0.14800
C726        C  0.62492687  0.03698547  0.27336838    -0.14800
C727        C  0.62627550  0.04162285  0.23937119     0.07300
C728        C  0.62533467  0.00852371  0.21970466    -0.14800
H729        H  0.62638670  0.94666383  0.21783100     0.11300
H730        H  0.62567126  0.99751736  0.31360523     0.11300
H731        H  0.62531858  0.06196831  0.28925554     0.11300
H732        H  0.62625953  0.01107039  0.19350442     0.11300
C733        C  0.78265504  0.76995416  0.25896636    -0.14800
C734        C  0.77849497  0.74103734  0.23548863     0.07300
C735        C  0.74806742  0.72733982  0.22855488    -0.14800
C736        C  0.72220558  0.74183901  0.24530046    -0.14800
C737        C  0.72640344  0.77032030  0.26913666     0.07300
C738        C  0.75678451  0.78446722  0.27570578    -0.14800
H739        H  0.80597293  0.78030848  0.26525396     0.11300
H740        H  0.74435965  0.70479167  0.21065676     0.11300
H741        H  0.69889508  0.73141535  0.23907495     0.11300
H742        H  0.76050193  0.80695346  0.29365734     0.11300
C743        C  0.78053171  0.89707691  0.36228197    -0.14800
C744        C  0.78064048  0.89619365  0.39645849     0.07300
C745        C  0.75152345  0.89692424  0.41274099    -0.14800
C746        C  0.72307930  0.89652768  0.39532481    -0.14800
C747        C  0.72297282  0.89614524  0.36114672     0.07300
C748        C  0.75208013  0.89743541  0.34486667    -0.14800
H749        H  0.80249289  0.89627564  0.34894614     0.11300
H750        H  0.75068994  0.89573720  0.43899880     0.11300
H751        H  0.70112729  0.89529392  0.40865443     0.11300
H752        H  0.75291402  0.89665282  0.31859628     0.11300
C753        C  0.65282053  0.73500880  0.39868309    -0.14800
C754        C  0.63222974  0.76685011  0.39622493     0.07300
C755        C  0.61039557  0.77328921  0.42119251    -0.14800
C756        C  0.60965504  0.74893348  0.44835623    -0.14800
C757        C  0.63105248  0.71794128  0.45139637     0.07300
C758        C  0.65242163  0.71103661  0.42605720    -0.14800
H759        H  0.66979360  0.72908037  0.37969726     0.11300
H760        H  0.59393828  0.79716184  0.41976004     0.11300
H761        H  0.59310826  0.75538915  0.46761232     0.11300
H762        H  0.66938770  0.68773263  0.42776181     0.11300
C763        C  0.60882822  0.76059343  0.19820803    -0.14800
C764        C  0.63091289  0.79085889  0.20139995     0.07300
C765        C  0.65269171  0.79691969  0.17629589    -0.14800
C766        C  0.65284532  0.77280675  0.14902771    -0.14800
C767        C  0.63155953  0.74167591  0.14641552     0.07300
C768        C  0.60930538  0.73607931  0.17112333    -0.14800
H769        H  0.59191741  0.75482052  0.21727987     0.11300
H770        H  0.67019119  0.81962233  0.17812459     0.11300
H771        H  0.67016838  0.77804880  0.13023820     0.11300
H772        H  0.59231067  0.71278226  0.16952345     0.11300
C773        C  0.37652343  0.97094256  0.23473417    -0.14800
C774        C  0.37734904  0.96634708  0.26876260     0.07300
C775        C  0.38019442  0.99949486  0.28823167    -0.14800
C776        C  0.37973397  0.03642480  0.27408072    -0.14800
C777        C  0.37658080  0.04092986  0.24018714     0.07300
C778        C  0.37616931  0.00775629  0.22063034    -0.14800
H779        H  0.37461767  0.94601322  0.21890233     0.11300
H780        H  0.38102927  0.99700309  0.31442735     0.11300
H781        H  0.38042695  0.06152983  0.28982868     0.11300
H782        H  0.37377659  0.01018821  0.19452931     0.11300
C783        C  0.35124538  0.73415461  0.39924432    -0.14800
C784        C  0.37249769  0.76530118  0.39655305     0.07300
C785        C  0.39476940  0.77102577  0.42124867    -0.14800
C786        C  0.39527044  0.74670244  0.44843340    -0.14800
C787        C  0.37317844  0.71649283  0.45176217     0.07300
C788        C  0.35141637  0.71022182  0.42663560    -0.14800
H789        H  0.33391966  0.72881124  0.38046014     0.11300
H790        H  0.41174603  0.79433894  0.41958903     0.11300
H791        H  0.41217648  0.75262163  0.46749168     0.11300
H792        H  0.33391966  0.68752286  0.42855768     0.11300
C793        C  0.39544262  0.76027381  0.19821652    -0.14800
C794        C  0.37343329  0.79054785  0.20168680     0.07300
C795        C  0.35131857  0.79657149  0.17684714    -0.14800
C796        C  0.35072188  0.77235877  0.14962597    -0.14800
C797        C  0.37191106  0.74118334  0.14679099     0.07300
C798        C  0.39452336  0.73567109  0.17119572    -0.14800
H799        H  0.41261089  0.75452327  0.21706020     0.11300
H800        H  0.33386265  0.81928799  0.17888389     0.11300
H801        H  0.33314404  0.77755151  0.13106385     0.11300
H802        H  0.41147136  0.71235268  0.16940961     0.11300
C803        C  0.48599712  0.79937637  0.31487216    -0.14800
C804        C  0.46908535  0.83437719  0.31437176     0.07300
C805        C  0.48583465  0.86944701  0.31296373    -0.14800
C806        C  0.51870909  0.86960183  0.31275028    -0.14800
C807        C  0.53567351  0.83469129  0.31397254     0.07300
C808        C  0.51896868  0.79953201  0.31467067    -0.14800
H809        H  0.47377331  0.77187195  0.31587352     0.11300
H810        H  0.47353911  0.89691256  0.31227354     0.11300
H811        H  0.53083720  0.89718196  0.31192419     0.11300
H812        H  0.53135987  0.77214237  0.31553579     0.11300
C813        C  0.28201049  0.73798920  0.24864334    -0.14800
C814        C  0.27820588  0.76885931  0.27033149     0.07300
C815        C  0.24808367  0.78477143  0.27522612    -0.14800
C816        C  0.22217285  0.77009622  0.25862848    -0.14800
C817        C  0.22596964  0.73919475  0.23697647     0.07300
C818        C  0.25609722  0.72330769  0.23205121    -0.14800
H819        H  0.30508515  0.72587008  0.24384951     0.11300
H820        H  0.24459967  0.80895187  0.29160121     0.11300
H821        H  0.19909439  0.78219044  0.26344415     0.11300
H822        H  0.25957086  0.69910050  0.21569850     0.11300
C823        C  0.25241164  0.89546142  0.34560216    -0.14800
C824        C  0.28142907  0.89393094  0.36206729     0.07300
C825        C  0.28109985  0.89388776  0.39625707    -0.14800
C826        C  0.25252738  0.89435932  0.41346730    -0.14800
C827        C  0.22349862  0.89410218  0.39695326     0.07300
C828        C  0.22384769  0.89515290  0.36279621    -0.14800
H829        H  0.25172677  0.89495978  0.31932510     0.11300
H830        H  0.30296586  0.89239921  0.40973980     0.11300
H831        H  0.25317140  0.89297155  0.43972700     0.11300
H832        H  0.20196742  0.89466978  0.34929208     0.11300
O833        O  0.33499186  0.87348267  0.85795502    -0.86800
O834        O  0.38501286  0.82361350  0.86732888    -0.83900
C835        C  0.37203883  0.79037393  0.86736423     0.96600
O836        O  0.35961371  0.77744694  0.84189849    -0.83900
O837        O  0.33317348  0.77410922  0.78108986    -0.86600
C838        C  0.30586009  0.78871559  0.78347228     1.01100
O839        O  0.30247681  0.82280152  0.79313634    -0.79300
O840        O  0.31308070  0.89540069  0.81363596    -0.79500
C841        C  0.31138908  0.88780177  0.84375623     1.01100
O842        O  0.37267182  0.92125506  0.81358243    -0.86800
O843        O  0.41992711  0.86642888  0.81906554    -0.83900
C844        C  0.43422959  0.83462434  0.81584844     0.96600
O845        O  0.41894291  0.80301777  0.81486895    -0.83900
O846        O  0.39033264  0.80503729  0.75513468    -0.86500
C847        C  0.37034472  0.81107260  0.73317943     1.01100
O848        O  0.34550622  0.83006755  0.73967802    -0.79400
O849        O  0.36224464  0.90114161  0.76434242    -0.79500
C850        C  0.37134108  0.92753283  0.78309422     1.01100
Cr851      Cr  0.37710623  0.86947528  0.83732608     1.93700
Cr852      Cr  0.37466502  0.79335929  0.79895621     1.93200
Cr853      Cr  0.33306560  0.86129969  0.77940965     1.39100
O854        O  0.36183551  0.84140343  0.80514224    -1.24600
O855        O  0.63179923  0.92210564  0.81238612    -0.86800
O856        O  0.58471321  0.86719622  0.81809633    -0.83900
C857        C  0.57053623  0.83525397  0.81523275     0.96600
O858        O  0.58597391  0.80376763  0.81454267    -0.83900
O859        O  0.61441794  0.80559916  0.75484013    -0.86600
C860        C  0.63428991  0.81151142  0.73277780     1.01100
O861        O  0.65916819  0.83058521  0.73905492    -0.79300
O862        O  0.64242490  0.90199858  0.76317036    -0.79500
C863        C  0.63305644  0.92827412  0.78189844     1.01100
O864        O  0.66958924  0.87519914  0.85700500    -0.86800
O865        O  0.61977620  0.82503310  0.86672412    -0.83900
C866        C  0.63285475  0.79186134  0.86697937     0.96600
O867        O  0.64546522  0.77889911  0.84163583    -0.83900
O868        O  0.67169209  0.77518421  0.78073040    -0.86500
C869        C  0.69897351  0.78991317  0.78288302     1.01100
O870        O  0.70236866  0.82398238  0.79258882    -0.79400
O871        O  0.69152820  0.89679583  0.81257011    -0.79500
C872        C  0.69313759  0.88958420  0.84276043     1.01100
Cr873      Cr  0.62752127  0.87066286  0.83641400     1.93700
Cr874      Cr  0.63024674  0.79430898  0.79862365     1.93200
Cr875      Cr  0.67165016  0.86227363  0.77856666     1.39100
O876        O  0.64292485  0.84246402  0.80443799    -1.24600
O877        O  0.66916948  0.63356671  0.60729242    -0.86800
O878        O  0.61907764  0.68340032  0.61697471    -0.83900
C879        C  0.63195129  0.71669290  0.61716808     0.96600
O880        O  0.64430575  0.72982528  0.59177529    -0.83900
O881        O  0.67091717  0.73385875  0.53130790    -0.86600
C882        C  0.69828225  0.71944149  0.53368139     1.01100
O883        O  0.70184298  0.68521843  0.54299659    -0.79300
O884        O  0.69128052  0.61217137  0.56290391    -0.79500
C885        C  0.69279139  0.61925295  0.59312923     1.01100
O886        O  0.63148067  0.58645423  0.56245932    -0.86800
O887        O  0.58423496  0.64098011  0.56834099    -0.83900
C888        C  0.56984949  0.67274094  0.56531211     0.96600
O889        O  0.58508926  0.70437882  0.56427170    -0.83900
O890        O  0.61408121  0.70304515  0.00470293    -0.86500
C891        C  0.63417250  0.69727320  0.98281014     1.01100
O892        O  0.65901996  0.67826962  0.98928340    -0.79400
O893        O  0.64230625  0.60668478  0.51332252    -0.79500
C894        C  0.63278896  0.58036538  0.53195052     1.01100
Cr895      Cr  0.62707224  0.63786908  0.58659359     1.93700
Cr896      Cr  0.62944972  0.71427773  0.54870571     1.93200
Cr897      Cr  0.67134374  0.64663859  0.52886029     1.39100
O898        O  0.64238861  0.66621977  0.55461196    -1.24600
O899        O  0.37180880  0.58575762  0.56310870    -0.86800
O900        O  0.41914675  0.64034405  0.56914116    -0.83900
C901        C  0.43343040  0.67219620  0.56610610     0.96600
O902        O  0.41809434  0.70376351  0.56513693    -0.83900
O903        O  0.38960950  0.70219680  0.00536785    -0.86600
C904        C  0.36975372  0.69616275  0.98328047     1.01100
O905        O  0.34485543  0.67718704  0.98958548    -0.79300
O906        O  0.36156280  0.60585951  0.51380229    -0.79500
C907        C  0.37073640  0.57956807  0.53260829     1.01100
O908        O  0.33404512  0.63303461  0.60747662    -0.86800
O909        O  0.38408753  0.68280761  0.61745118    -0.83900
C910        C  0.37117457  0.71606590  0.61761193     0.96600
O911        O  0.35866091  0.72904214  0.59221688    -0.83900
O912        O  0.33239270  0.73279093  0.53133319    -0.86500
C913        C  0.30508152  0.71812500  0.53349676     1.01100
O914        O  0.30165718  0.68397538  0.54297845    -0.79400
O915        O  0.31226205  0.61120305  0.56303039    -0.79500
C916        C  0.31054397  0.61858090  0.59318700     1.01100
Cr917      Cr  0.37621575  0.63720607  0.58713840     1.93700
Cr918      Cr  0.37383273  0.71349818  0.54919957     1.93200
Cr919      Cr  0.33232346  0.64562444  0.52907843     1.39100
O920        O  0.36103521  0.66540379  0.55502533    -1.24600
O921        O  0.16979242  0.87409015  0.90062087    -0.86800
O922        O  0.11952064  0.82479059  0.89050149    -0.83900
C923        C  0.13196707  0.79128197  0.89045320     0.96600
O924        O  0.14396972  0.77789746  0.91595950    -0.83900
O925        O  0.17047345  0.77403932  0.97659236    -0.86600
C926        C  0.19790322  0.78828322  0.97412075     1.01100
O927        O  0.20158210  0.82249015  0.96483074    -0.79300
O928        O  0.19154559  0.89561051  0.94512651    -0.79500
C929        C  0.19339292  0.88814732  0.91502359     1.01100
O930        O  0.13186070  0.92159532  0.94503061    -0.86800
O931        O  0.08433833  0.86736282  0.93848623    -0.83900
C932        C  0.06984464  0.83565908  0.94160881     0.96600
O933        O  0.08496201  0.80398517  0.94308964    -0.83900
O934        O  0.11364130  0.80558487  0.50278393    -0.86500
C935        C  0.13375775  0.81111478  0.52470080     1.01100
O936        O  0.15874891  0.82979447  0.51830976    -0.79400
O937        O  0.14238015  0.90127924  0.99423241    -0.79500
C938        C  0.13304480  0.92763582  0.97555518     1.01100
Cr939      Cr  0.12744567  0.87022101  0.92083899     1.93700
Cr940      Cr  0.12913558  0.79387217  0.95894165     1.93200
Cr941      Cr  0.17129149  0.86124225  0.97888054     1.39100
O942        O  0.14235125  0.84181946  0.95298272    -1.24600
O943        O  0.87187772  0.92211892  0.94585692    -0.86800
O944        O  0.91911963  0.86776210  0.93915414    -0.83900
C945        C  0.93345578  0.83591884  0.94179746     0.96600
O946        O  0.91817799  0.80431128  0.94270148    -0.83900
O947        O  0.88928707  0.80497378  0.50228517    -0.86600
C948        C  0.86910465  0.81018991  0.52417160     1.01100
O949        O  0.84422322  0.82923817  0.51788414    -0.79300
O950        O  0.86076987  0.90147988  0.99485369    -0.79500
C951        C  0.87053301  0.92788462  0.97642007     1.01100
O952        O  0.83414893  0.87568439  0.90050662    -0.86800
O953        O  0.88418938  0.82608713  0.89027618    -0.83900
C954        C  0.87138589  0.79276599  0.88982542     0.96600
O955        O  0.85896993  0.77934748  0.91507955    -0.83900
O956        O  0.83240844  0.77446728  0.97553567    -0.86500
C957        C  0.80507152  0.78896440  0.97319846     1.01100
O958        O  0.80161175  0.82315528  0.96381488    -0.79400
O959        O  0.81206898  0.89656549  0.94505695    -0.79500
C960        C  0.81051024  0.88970521  0.91481651     1.01100
Cr961      Cr  0.87624671  0.87116240  0.92109981     1.93700
Cr962      Cr  0.87386832  0.79426961  0.95824522     1.93200
Cr963      Cr  0.83192468  0.86156927  0.97869046     1.39100
O964        O  0.86098263  0.84242387  0.95282735    -1.24600
O965        O  0.83397448  0.63226107  0.65093878    -0.86800
O966        O  0.88416113  0.68151736  0.64004671    -0.83900
C967        C  0.87137320  0.71484433  0.63955523     0.96600
O968        O  0.85939254  0.72855577  0.66491706    -0.83900
O969        O  0.83330423  0.73428276  0.72540026    -0.86600
C970        C  0.80585364  0.72016945  0.72299564     1.01100
O971        O  0.80207025  0.68578349  0.71419796    -0.79300
O972        O  0.81183521  0.61207856  0.69567458    -0.79500
C973        C  0.81025359  0.61861940  0.66539284     1.01100
O974        O  0.87184403  0.58599986  0.69626257    -0.86800
O975        O  0.91934843  0.64000759  0.68895944    -0.83900
C976        C  0.93379072  0.67180778  0.69155401     0.96600
O977        O  0.91861934  0.70346638  0.69236220    -0.83900
O978        O  0.89003417  0.70358293  0.75216881    -0.86500
C979        C  0.86996340  0.69819724  0.77415775     1.01100
O980        O  0.84496105  0.67937975  0.76793361    -0.79400
O981        O  0.86081695  0.60698711  0.74517394    -0.79500
C982        C  0.87047403  0.58043024  0.72684267     1.01100
Cr983      Cr  0.87626648  0.63673099  0.67122789     1.93700
Cr984      Cr  0.87448818  0.71391826  0.70807425     1.93200
Cr985      Cr  0.83220329  0.64708991  0.72899339     1.39100
O986        O  0.86130924  0.66580072  0.70293717    -1.24600
O987        O  0.13189795  0.58646523  0.69488901    -0.86800
O988        O  0.08457988  0.64075879  0.68845497    -0.83900
C989        C  0.07016014  0.67250680  0.69134562     0.96600
O990        O  0.08534764  0.70420320  0.69246180    -0.83900
O991        O  0.11373267  0.70329398  0.75228498    -0.86600
C992        C  0.13360974  0.69742342  0.77436931     1.01100
O993        O  0.15848010  0.67836637  0.76816364    -0.79300
O994        O  0.14190141  0.60670671  0.74422867    -0.79500
C995        C  0.13277467  0.58036780  0.72540526     1.01100
O996        O  0.16973821  0.63362914  0.65049411    -0.86800
O997        O  0.11970626  0.68310649  0.64028035    -0.83900
C998        C  0.13262336  0.71634464  0.64009062     0.96600
O999        O  0.14488935  0.72954772  0.66551295    -0.83900
O1000       O  0.17099079  0.73382436  0.72627545    -0.86500
C1001       C  0.19830415  0.71918268  0.72404301     1.01100
O1002       O  0.20168610  0.68494092  0.71477737    -0.79400
O1003       O  0.19131668  0.61201049  0.69509600    -0.79500
C1004       C  0.19314315  0.61918568  0.66491411     1.01100
Cr1005     Cr  0.12752081  0.63774274  0.67069528     1.93700
Cr1006     Cr  0.12957805  0.71425831  0.70845719     1.93200
Cr1007     Cr  0.17111423  0.64656845  0.72886045     1.39100
O1008       O  0.14245218  0.66614196  0.70281555    -1.24600
O1009       O  0.67004923  0.37510392  0.90036827    -0.86800
O1010       O  0.61999352  0.32520797  0.89018963    -0.83900
C1011       C  0.63254371  0.29174274  0.89010540     0.96600
O1012       O  0.64484591  0.27858469  0.91553772    -0.83900
O1013       O  0.67127338  0.27479849  0.97626198    -0.86600
C1014       C  0.69861763  0.28935277  0.97405828     1.01100
O1015       O  0.70211685  0.32352150  0.96460008    -0.79300
O1016       O  0.69165729  0.39666102  0.94498794    -0.79500
C1017       C  0.69347760  0.38955783  0.91481009     1.01100
O1018       O  0.63200358  0.42198768  0.94482900    -0.86800
O1019       O  0.58471164  0.36751488  0.93837019    -0.83900
C1020       C  0.57032644  0.33573850  0.94146317     0.96600
O1021       O  0.58557834  0.30413051  0.94269832    -0.83900
O1022       O  0.61419758  0.30569350  0.50237520    -0.86500
C1023       C  0.63419524  0.31132337  0.52438399     1.01100
O1024       O  0.65911902  0.33023933  0.51808596    -0.79400
O1025       O  0.64247338  0.40198471  0.99415697    -0.79500
C1026       C  0.63305285  0.42817736  0.97533257     1.01100
Cr1027     Cr  0.62775879  0.37069409  0.92060531     1.93700
Cr1028     Cr  0.62985083  0.29430161  0.95853874     1.93200
Cr1029     Cr  0.67158761  0.36201512  0.97871273     1.39100
O1030       O  0.64281201  0.34238319  0.95271492    -1.24600
O1031       O  0.37185135  0.42153092  0.94518319    -0.86800
O1032       O  0.41932376  0.36726392  0.93870355    -0.83900
C1033       C  0.43377201  0.33554972  0.94187925     0.96600
O1034       O  0.41857731  0.30389750  0.94334818    -0.83900
O1035       O  0.38946941  0.30517861  0.50291490    -0.86600
C1036       C  0.36917004  0.31049734  0.52467997     1.01100
O1037       O  0.34433607  0.32946805  0.51815853    -0.79300
O1038       O  0.36111916  0.40116479  0.99433418    -0.79500
C1039       C  0.37051526  0.42754578  0.97570435     1.01100
O1040       O  0.33405444  0.37443709  0.90046377    -0.86800
O1041       O  0.38413788  0.32487113  0.89043062    -0.83900
C1042       C  0.37146790  0.29147428  0.89029348     0.96600
O1043       O  0.35948824  0.27808204  0.91578540    -0.83900
O1044       O  0.33269265  0.27410050  0.97612184    -0.86500
C1045       C  0.30530255  0.28845354  0.97359402     1.01100
O1046       O  0.30174407  0.32271224  0.96437072    -0.79400
O1047       O  0.31215772  0.39595386  0.94488315    -0.79500
C1048       C  0.31051623  0.38884094  0.91469055     1.01100
Cr1049     Cr  0.37626874  0.37025698  0.92088876     1.93700
Cr1050     Cr  0.37421763  0.29382734  0.95886540     1.93200
Cr1051     Cr  0.33213428  0.36127514  0.97870503     1.39100
O1052       O  0.36115425  0.34183345  0.95292788    -1.24600
O1053       O  0.33355398  0.13233619  0.65067039    -0.86800
O1054       O  0.38353258  0.18184248  0.64035968    -0.83900
C1055       C  0.37055391  0.21505019  0.64001406     0.96600
O1056       O  0.35845337  0.22848172  0.66543635    -0.83900
O1057       O  0.33240104  0.23324349  0.72618153    -0.86600
C1058       C  0.30500826  0.21889095  0.72392062     1.01100
O1059       O  0.30136693  0.18469210  0.71458699    -0.79300
O1060       O  0.31146056  0.11136502  0.69521020    -0.79500
C1061       C  0.30998775  0.11808900  0.66493550     1.01100
O1062       O  0.37118873  0.08559377  0.69552015    -0.86800
O1063       O  0.41873532  0.13977861  0.68887421    -0.83900
C1064       C  0.43314152  0.17158659  0.69159854     0.96600
O1065       O  0.41788437  0.20320709  0.69264301    -0.83900
O1066       O  0.38927801  0.20244022  0.75248063    -0.86500
C1067       C  0.36923984  0.19690206  0.77448111     1.01100
O1068       O  0.34431565  0.17792918  0.76822597    -0.79400
O1069       O  0.36049790  0.10593408  0.74469904    -0.79500
C1070       C  0.36993519  0.07960487  0.72603953     1.01100
Cr1071     Cr  0.37569750  0.13665533  0.67105343     1.93700
Cr1072     Cr  0.37366238  0.21334485  0.70851207     1.93200
Cr1073     Cr  0.33167163  0.14602900  0.72894224     1.39100
O1074       O  0.36063547  0.16525462  0.70299402    -1.24600
O1075       O  0.63169080  0.08636661  0.69469166    -0.86800
O1076       O  0.58418441  0.14053699  0.68823643    -0.83900
C1077       C  0.56971298  0.17224459  0.69131874     0.96600
O1078       O  0.58488927  0.20395189  0.69257369    -0.83900
O1079       O  0.61365846  0.20321051  0.75219435    -0.86600
C1080       C  0.63357047  0.19736731  0.77424500     1.01100
O1081       O  0.65844122  0.17835237  0.76798250    -0.79300
O1082       O  0.64164522  0.10681880  0.74397018    -0.79500
C1083       C  0.63262103  0.08036650  0.72521790     1.01100
O1084       O  0.66953399  0.13353279  0.65027287    -0.86800
O1085       O  0.61919152  0.18295331  0.63994415    -0.83900
C1086       C  0.63199009  0.21626624  0.63977707     0.96600
O1087       O  0.64425469  0.22946566  0.66519795    -0.83900
O1088       O  0.67079414  0.23380058  0.72567900    -0.86500
C1089       C  0.69817575  0.21930916  0.72345026     1.01100
O1090       O  0.70168573  0.18486834  0.71469976    -0.79400
O1091       O  0.69111294  0.11191226  0.69487700    -0.79500
C1092       C  0.69298522  0.11913213  0.66470378     1.01100
Cr1093     Cr  0.62721709  0.13761921  0.67046093     1.93700
Cr1094     Cr  0.62925056  0.21412599  0.70824515     1.93200
Cr1095     Cr  0.67094566  0.14654306  0.72863773     1.39100
O1096       O  0.64221912  0.16607797  0.70256119    -1.24600
O1097       O  0.83449683  0.37413425  0.85792016    -0.86800
O1098       O  0.88454623  0.32406463  0.86741316    -0.83900
C1099       C  0.87173248  0.29074728  0.86731822     0.96600
O1100       O  0.85918275  0.27800946  0.84183898    -0.83900
O1101       O  0.83268526  0.27515444  0.78089138    -0.86600
C1102       C  0.80541712  0.28999546  0.78284466     1.01100
O1103       O  0.80206113  0.32407209  0.79261702    -0.79300
O1104       O  0.81302134  0.39662650  0.81353903    -0.79500
C1105       C  0.81117420  0.38905702  0.84365421     1.01100
O1106       O  0.87243518  0.42184988  0.81407350    -0.86800
O1107       O  0.91949647  0.36706604  0.81945995    -0.83900
C1108       C  0.93377510  0.33527967  0.81617754     0.96600
O1109       O  0.91848062  0.30369247  0.81483822    -0.83900
O1110       O  0.88991317  0.30591188  0.75510177    -0.86500
C1111       C  0.87002407  0.31213296  0.73308542     1.01100
O1112       O  0.84529814  0.33134942  0.73950800    -0.79400
O1113       O  0.86250266  0.40233193  0.76454283    -0.79500
C1114       C  0.87164195  0.42839505  0.78362878     1.01100
Cr1115     Cr  0.87667288  0.37002801  0.83754143     1.93700
Cr1116     Cr  0.87420242  0.29414642  0.79888822     1.93200
Cr1117     Cr  0.83295792  0.36250620  0.77929320     1.39100
O1118       O  0.86146982  0.34221085  0.80516624    -1.24600
O1119       O  0.13148278  0.42208398  0.81261998    -0.86800
O1120       O  0.08432327  0.36740394  0.81899791    -0.83900
C1121       C  0.07000174  0.33558044  0.81601922     0.96600
O1122       O  0.08526421  0.30400815  0.81475571    -0.83900
O1123       O  0.11377054  0.30565401  0.75489235    -0.86600
C1124       C  0.13382102  0.31131089  0.73293257     1.01100
O1125       O  0.15866792  0.33035145  0.73929296    -0.79300
O1126       O  0.14200781  0.40184462  0.76340865    -0.79500
C1127       C  0.13268928  0.42819527  0.78210364     1.01100
O1128       O  0.16955476  0.37499646  0.85711126    -0.86800
O1129       O  0.11966557  0.32507858  0.86720851    -0.83900
C1130       C  0.13231692  0.29165825  0.86730185     0.96600
O1131       O  0.14446133  0.27843576  0.84180778    -0.83900
O1132       O  0.17077319  0.27479516  0.78108371    -0.86500
C1133       C  0.19813047  0.28925362  0.78342398     1.01100
O1134       O  0.20171050  0.32347572  0.79273258    -0.79400
O1135       O  0.19127621  0.39651378  0.81257589    -0.79500
C1136       C  0.19304459  0.38933492  0.84275019     1.01100
Cr1137     Cr  0.12731614  0.37063738  0.83680674     1.93700
Cr1138     Cr  0.12942352  0.29424003  0.79880017     1.93200
Cr1139     Cr  0.17114975  0.36198239  0.77875084     1.39100
O1140       O  0.14238578  0.34232156  0.80469548    -1.24600
O1141       O  0.16977300  0.13269625  0.60695765    -0.86800
O1142       O  0.11995947  0.18246293  0.61755503    -0.83900
C1143       C  0.13284632  0.21572836  0.61770136     0.96600
O1144       O  0.14506149  0.22888071  0.59223198    -0.83900
O1145       O  0.17095716  0.23306587  0.53129351    -0.86600
C1146       C  0.19824850  0.21834188  0.53326631     1.01100
O1147       O  0.20166812  0.18413647  0.54263042    -0.79300
O1148       O  0.19125354  0.11110994  0.56229720    -0.79500
C1149       C  0.19308734  0.11809711  0.59251042     1.01100
O1150       O  0.13162097  0.08586529  0.56270832    -0.86800
O1151       O  0.08441735  0.14034205  0.56949761    -0.83900
C1152       C  0.07013683  0.17220914  0.56675565     0.96600
O1153       O  0.08546959  0.20377161  0.56542346    -0.83900
O1154       O  0.11369662  0.20283565  0.00530906    -0.86500
C1155       C  0.13356153  0.19696220  0.98319164     1.01100
O1156       O  0.15832068  0.17765715  0.98935557    -0.79400
O1157       O  0.14164727  0.10600001  0.51334140    -0.79500
C1158       C  0.13250515  0.07972109  0.53220168     1.01100
Cr1159     Cr  0.12749330  0.13710151  0.58697996     1.93700
Cr1160     Cr  0.12962321  0.21363575  0.54923976     1.93200
Cr1161     Cr  0.17096878  0.14580015  0.52864827     1.39100
O1162       O  0.14239750  0.16545360  0.55480314    -1.24600
O1163       O  0.87231328  0.08635321  0.56383701    -0.86800
O1164       O  0.91941459  0.14107053  0.56974439    -0.83900
C1165       C  0.93381304  0.17280401  0.56660170     0.96600
O1166       O  0.91860574  0.20442279  0.56503670    -0.83900
O1167       O  0.89018534  0.20224556  0.00516808    -0.86600
C1168       C  0.87030305  0.19617313  0.98311203     1.01100
O1169       O  0.84541918  0.17722424  0.98951280    -0.79300
O1170       O  0.86228512  0.10606598  0.51437781    -0.79500
C1171       C  0.87148947  0.07993180  0.53335669     1.01100
O1172       O  0.83417906  0.13401508  0.60776615    -0.86800
O1173       O  0.88413818  0.18405905  0.61750668    -0.83900
C1174       C  0.87142653  0.21743446  0.61734281     0.96600
O1175       O  0.85924260  0.23034194  0.59176364    -0.83900
O1176       O  0.83301728  0.23326702  0.53103564    -0.86500
C1177       C  0.80565862  0.21879138  0.53340406     1.01100
O1178       O  0.80210126  0.18452951  0.54263936    -0.79400
O1179       O  0.81270536  0.11182077  0.56329299    -0.79500
C1180       C  0.81081321  0.11929637  0.59342581     1.01100
Cr1181     Cr  0.87645004  0.13812712  0.58752820     1.93700
Cr1182     Cr  0.87440319  0.21407391  0.54893205     1.93200
Cr1183     Cr  0.83287403  0.14599183  0.52919930     1.39100
O1184       O  0.86144922  0.16606256  0.55514673    -1.24600
C1185       C  0.01829481  0.13767639  0.56679380    -0.14800
C1186       C  0.03526297  0.17262392  0.56614168     0.07300
C1187       C  0.01856607  0.20776008  0.56515655    -0.14800
C1188       C  0.98560741  0.20791940  0.56502717    -0.14800
C1189       C  0.96868270  0.17294213  0.56592164     0.07300
C1190       C  0.98542066  0.13783528  0.56666723    -0.14800
H1191       H  0.03041042  0.11008919  0.56748592     0.11300
H1192       H  0.03095549  0.23517025  0.56466033     0.11300
H1193       H  0.97339935  0.23544159  0.56446553     0.11300
H1194       H  0.97312067  0.11036066  0.56728315     0.11300
C1195       C  0.15263667  0.29659943  0.67659559    -0.14800
C1196       C  0.13084101  0.29030641  0.70166839     0.07300
C1197       C  0.10929435  0.25946141  0.69864361    -0.14800
C1198       C  0.11022012  0.23474425  0.67170810    -0.14800
C1199       C  0.13237343  0.24069902  0.64695480     0.07300
C1200       C  0.15323501  0.27226378  0.64946138    -0.14800
H1201       H  0.16978248  0.31972442  0.67833126     0.11300
H1202       H  0.09245871  0.25343863  0.71772822     0.11300
H1203       H  0.09357113  0.21105569  0.67021786     0.11300
H1204       H  0.17049118  0.27775806  0.63065496     0.11300
C1205       C  0.15194626  0.23446734  0.89889105    -0.14800
C1206       C  0.13174375  0.26670463  0.89661636     0.07300
C1207       C  0.11030219  0.27362750  0.92186297    -0.14800
C1208       C  0.10949242  0.24929345  0.94905298    -0.14800
C1209       C  0.13043222  0.21780927  0.95184300     0.07300
C1210       C  0.15147975  0.21050733  0.92628230    -0.14800
H1211       H  0.16864254  0.22818331  0.87972797     0.11300
H1212       H  0.09417097  0.29785522  0.92061262     0.11300
H1213       H  0.09325724  0.25610488  0.96849980     0.11300
H1214       H  0.16814097  0.18684346  0.92780425     0.11300
C1215       C  0.89496990  0.26118295  0.69826942    -0.14800
C1216       C  0.87315552  0.29167754  0.70156767     0.07300
C1217       C  0.85138478  0.29809159  0.67645976    -0.14800
C1218       C  0.85100106  0.27406629  0.64909172    -0.14800
C1219       C  0.87200326  0.24266017  0.64645434     0.07300
C1220       C  0.89423255  0.23677211  0.67115158    -0.14800
H1221       H  0.91185387  0.25511597  0.71731127     0.11300
H1222       H  0.83407164  0.32099275  0.67837132     0.11300
H1223       H  0.83371568  0.27953801  0.63029482     0.11300
H1224       H  0.91101937  0.21326101  0.66953876     0.11300
C1225       C  0.85160504  0.23395050  0.89900046    -0.14800
C1226       C  0.87253206  0.26543390  0.89638398     0.07300
C1227       C  0.89477841  0.27135295  0.92108710    -0.14800
C1228       C  0.89549290  0.24696926  0.94824003    -0.14800
C1229       C  0.87364488  0.21648737  0.95154696     0.07300
C1230       C  0.85197757  0.20996005  0.92637067    -0.14800
H1231       H  0.83433542  0.22841670  0.88020213     0.11300
H1232       H  0.91153789  0.29491147  0.91948802     0.11300
H1233       H  0.91233067  0.25308531  0.96732048     0.11300
H1234       H  0.83468091  0.18702805  0.92825490     0.11300
C1235       C  0.98544728  0.29999675  0.81482008    -0.14800
C1236       C  0.96861177  0.33503656  0.81511186     0.07300
C1237       C  0.98540849  0.37011758  0.81494292    -0.14800
C1238       C  0.01827248  0.37020094  0.81495424    -0.14800
C1239       C  0.03515459  0.33520781  0.81511346     0.07300
C1240       C  0.01839870  0.30008050  0.81483220    -0.14800
H1241       H  0.97317747  0.27249823  0.81492923     0.11300
H1242       H  0.97316261  0.39762994  0.81499465     0.11300
H1243       H  0.03045117  0.39776706  0.81500561     0.11300
H1244       H  0.03073362  0.27263378  0.81493291     0.11300
C1245       C  0.75199767  0.11107745  0.66301107    -0.14800
C1246       C  0.72296865  0.11250873  0.64654197     0.07300
C1247       C  0.72329131  0.11215980  0.61236113    -0.14800
C1248       C  0.75183821  0.11180838  0.59513465    -0.14800
C1249       C  0.78086605  0.11258791  0.61160347     0.07300
C1250       C  0.78056309  0.11151306  0.64577907    -0.14800
H1251       H  0.75268341  0.11173896  0.68928789     0.11300
H1252       H  0.70142123  0.11342486  0.59887571     0.11300
H1253       H  0.75115194  0.11306652  0.56887377     0.11300
H1254       H  0.80245895  0.11225429  0.65925427     0.11300
C1255       C  0.75606542  0.22432113  0.73097698    -0.14800
C1256       C  0.72583576  0.23997705  0.73577684     0.07300
C1257       C  0.72193700  0.27137359  0.75691370    -0.14800
C1258       C  0.74773795  0.28639180  0.77349716    -0.14800
C1259       C  0.77788434  0.27036078  0.76910874     0.07300
C1260       C  0.78188287  0.23936493  0.74755346    -0.14800
H1261       H  0.75965683  0.19987660  0.71490119     0.11300
H1262       H  0.69881768  0.28346467  0.76150834     0.11300
H1263       H  0.74410953  0.31077121  0.78962702     0.11300
H1264       H  0.80500794  0.22724581  0.74301902     0.11300
C1265       C  0.48482739  0.20682731  0.69571585    -0.14800
C1266       C  0.46807553  0.17190343  0.69240800     0.07300
C1267       C  0.48506491  0.13714246  0.68945449    -0.14800
C1268       C  0.51797393  0.13731778  0.68940402    -0.14800
C1269       C  0.53477048  0.17225855  0.69229665     0.07300
C1270       C  0.51781579  0.20700276  0.69567064    -0.14800
H1271       H  0.47245385  0.23409071  0.69815233     0.11300
H1272       H  0.47293671  0.10970805  0.68692193     0.11300
H1273       H  0.53025567  0.11000232  0.68683644     0.11300
H1274       H  0.53002754  0.23439048  0.69806536     0.11300
C1275       C  0.28038244  0.11080469  0.61219872    -0.14800
C1276       C  0.28031230  0.11110694  0.64639447     0.07300
C1277       C  0.25115382  0.10940592  0.66251872    -0.14800
C1278       C  0.22281014  0.10972576  0.64495907    -0.14800
C1279       C  0.22286564  0.11103245  0.61079820     0.07300
C1280       C  0.25202843  0.11040963  0.59462520    -0.14800
H1281       H  0.30239253  0.11225284  0.59898481     0.11300
H1282       H  0.25017939  0.11000276  0.68878395     0.11300
H1283       H  0.20078378  0.11032104  0.65819070     0.11300
H1284       H  0.25295959  0.11183983  0.56837820     0.11300
C1285       C  0.28179053  0.26856068  0.76010730    -0.14800
C1286       C  0.27761738  0.23918293  0.73703742     0.07300
C1287       C  0.24724357  0.22481317  0.73079790    -0.14800
C1288       C  0.22140911  0.23955312  0.74742206    -0.14800
C1289       C  0.22556693  0.26897389  0.77043955     0.07300
C1290       C  0.25594096  0.28332914  0.77672162    -0.14800
H1291       H  0.30508121  0.27933997  0.76597539     0.11300
H1292       H  0.24351809  0.20177823  0.71334701     0.11300
H1293       H  0.19812609  0.22874741  0.74155530     0.11300
H1294       H  0.25964619  0.30637663  0.79417023     0.11300
C1295       C  0.39335198  0.27316003  0.83578747    -0.14800
C1296       C  0.37170070  0.26671485  0.86091449     0.07300
C1297       C  0.35092737  0.23503796  0.85852344    -0.14800
C1298       C  0.35112247  0.21106423  0.83116082    -0.14800
C1299       C  0.37245321  0.21780414  0.80575895     0.07300
C1300       C  0.39388729  0.24879370  0.80862044    -0.14800
H1301       H  0.40988888  0.29697773  0.83714911     0.11300
H1302       H  0.33402585  0.22919274  0.87759538     0.11300
H1303       H  0.33407076  0.18781937  0.82955181     0.11300
H1304       H  0.41034504  0.25517105  0.78926887     0.11300
C1305       C  0.34953131  0.29468613  0.58050184    -0.14800
C1306       C  0.37192300  0.28924882  0.55584991     0.07300
C1307       C  0.39406592  0.25910299  0.55920137    -0.14800
C1308       C  0.39331269  0.23439643  0.58615120    -0.14800
C1309       C  0.37071483  0.23967304  0.61057606     0.07300
C1310       C  0.34909100  0.27037577  0.60764100    -0.14800
H1311       H  0.33188067  0.31717650  0.57847731     0.11300
H1312       H  0.41135112  0.25369912  0.54041554     0.11300
H1313       H  0.41049932  0.21134788  0.58797207     0.11300
H1314       H  0.33142585  0.27525797  0.62616311     0.11300
C1315       C  0.24747725  0.28323730  0.98091662    -0.14800
C1316       C  0.27775121  0.26802916  0.98629757     0.07300
C1317       C  0.28177173  0.23753290  0.50832313    -0.14800
C1318       C  0.25597048  0.22278521  0.52502113    -0.14800
C1319       C  0.22573975  0.23821224  0.51985529     0.07300
C1320       C  0.22166829  0.26848195  0.99761897    -0.14800
H1321       H  0.24383114  0.30705245  0.96420654     0.11300
H1322       H  0.30495624  0.22591627  0.51344043     0.11300
H1323       H  0.25962940  0.19899891  0.54175604     0.11300
H1324       H  0.19847570  0.28009920  0.99253431     0.11300
C1325       C  0.25160960  0.39773468  0.91253153    -0.14800
C1326       C  0.28069637  0.39558420  0.89626111     0.07300
C1327       C  0.28054725  0.39535935  0.86207296    -0.14800
C1328       C  0.25208947  0.39586683  0.84466878    -0.14800
C1329       C  0.22298435  0.39586836  0.86098044     0.07300
C1330       C  0.22313506  0.39748296  0.89513442    -0.14800
H1331       H  0.25078256  0.39752642  0.93880718     0.11300
H1332       H  0.30246476  0.39351358  0.84873563     0.11300
H1333       H  0.25287893  0.39413125  0.81842916     0.11300
H1334       H  0.20117010  0.39731835  0.90848114     0.11300
C1335       C  0.72200105  0.23912335  0.50965339    -0.14800
C1336       C  0.72609740  0.26933026  0.98735257     0.07300
C1337       C  0.75637254  0.28453086  0.98200372    -0.14800
C1338       C  0.78218561  0.26964255  0.99860017    -0.14800
C1339       C  0.77813171  0.23921731  0.52068502     0.07300
C1340       C  0.74782662  0.22421146  0.52624101    -0.14800
H1341       H  0.69878103  0.22768235  0.51488059     0.11300
H1342       H  0.76005578  0.30826075  0.96521972     0.11300
H1343       H  0.80539670  0.28111059  0.99337410     0.11300
H1344       H  0.74416275  0.20047188  0.54302239     0.11300
C1345       C  0.75246785  0.39663765  0.91325840    -0.14800
C1346       C  0.72345294  0.39627366  0.89673884     0.07300
C1347       C  0.72377434  0.39766301  0.86258756    -0.14800
C1348       C  0.75233736  0.39790192  0.84539783    -0.14800
C1349       C  0.78132397  0.39595009  0.86188575     0.07300
C1350       C  0.78101947  0.39607494  0.89606094    -0.14800
H1351       H  0.75312122  0.39515816  0.93951304     0.11300
H1352       H  0.70188764  0.39726778  0.84909208     0.11300
H1353       H  0.75166217  0.39745468  0.81911821     0.11300
H1354       H  0.80287952  0.39444282  0.90954263     0.11300
C1355       C  0.61044989  0.27395965  0.83552662    -0.14800
C1356       C  0.63167586  0.26666334  0.86090241     0.07300
C1357       C  0.65141298  0.23397189  0.85885309    -0.14800
C1358       C  0.65088494  0.21006296  0.83144670    -0.14800
C1359       C  0.63024050  0.21790941  0.80566346     0.07300
C1360       C  0.60956722  0.24967528  0.80832159    -0.14800
H1361       H  0.59462170  0.29849831  0.83664042     0.11300
H1362       H  0.66786259  0.22733380  0.87816983     0.11300
H1363       H  0.66724607  0.18607603  0.83004938     0.11300
H1364       H  0.59358882  0.25681981  0.78871857     0.11300
C1365       C  0.65310476  0.29608242  0.58054315    -0.14800
C1366       C  0.63092159  0.29055785  0.55570285     0.07300
C1367       C  0.60849730  0.26070995  0.55907062    -0.14800
C1368       C  0.60899564  0.23610276  0.58609186    -0.14800
C1369       C  0.63162630  0.24119939  0.61053481     0.07300
C1370       C  0.65329098  0.27188496  0.60773568    -0.14800
H1371       H  0.67088368  0.31843970  0.57856606     0.11300
H1372       H  0.59127218  0.25535837  0.54019593     0.11300
H1373       H  0.59170237  0.21315358  0.58787372     0.11300
H1374       H  0.67090990  0.27671359  0.62632759     0.11300
C1375       C  0.51859110  0.30064513  0.94604894    -0.14800
C1376       C  0.53540296  0.33548977  0.94251346     0.07300
C1377       C  0.51848063  0.37029887  0.93955246    -0.14800
C1378       C  0.48557899  0.37025795  0.93965058    -0.14800
C1379       C  0.46871472  0.33540724  0.94273404     0.07300
C1380       C  0.48559951  0.30060493  0.94615485    -0.14800
H1381       H  0.53091458  0.27334894  0.44851666     0.11300
H1382       H  0.53065638  0.39767803  0.93687753     0.11300
H1383       H  0.47335498  0.39760587  0.93704354     0.11300
H1384       H  0.47332877  0.27327594  0.44869326     0.11300
C1385       C  0.12628936  0.50848522  0.71974953    -0.14800
C1386       C  0.12620682  0.54159334  0.73941516     0.07300
C1387       C  0.12362141  0.53693236  0.77333457    -0.14800
C1388       C  0.12355248  0.49997400  0.78737724    -0.14800
C1389       C  0.12620888  0.46690703  0.76779810     0.07300
C1390       C  0.12633457  0.47158697  0.73376969    -0.14800
H1391       H  0.12818347  0.51104236  0.69360757     0.11300
H1392       H  0.12316138  0.56194658  0.78918696     0.11300
H1393       H  0.12322153  0.49741632  0.81358735     0.11300
H1394       H  0.12802941  0.44668928  0.71788407     0.11300
C1395       C  0.88068104  0.50896124  0.72198300    -0.14800
C1396       C  0.87733086  0.54198566  0.74148187     0.07300
C1397       C  0.87712281  0.53738006  0.77552430    -0.14800
C1398       C  0.87764472  0.50044904  0.78958363    -0.14800
C1399       C  0.87823456  0.46732660  0.76990551     0.07300
C1400       C  0.88106365  0.47205318  0.73602910    -0.14800
H1401       H  0.88118181  0.51145853  0.69577157     0.11300
H1402       H  0.87496886  0.56229051  0.79133808     0.11300
H1403       H  0.87560076  0.49782880  0.81571116     0.11300
H1404       H  0.88197292  0.44706846  0.72016680     0.11300
C1405       C  0.98539453  0.70706004  0.69584218    -0.14800
C1406       C  0.96867837  0.67211786  0.69246014     0.07300
C1407       C  0.98564716  0.63737072  0.68944813    -0.14800
C1408       C  0.01852914  0.63757745  0.68935105    -0.14800
C1409       C  0.03528253  0.67253441  0.69228704     0.07300
C1410       C  0.01835906  0.70726685  0.69575249    -0.14800
H1411       H  0.97301252  0.73430854  0.69834902     0.11300
H1412       H  0.97352549  0.60993966  0.68686746     0.11300
H1413       H  0.03081899  0.61027703  0.68671614     0.11300
H1414       H  0.03057100  0.73465096  0.69819954     0.11300
C1415       C  0.87963665  0.99952280  0.97135063    -0.14800
C1416       C  0.87748347  0.96640594  0.99089795     0.07300
C1417       C  0.87843095  0.97096848  0.52493404    -0.14800
C1418       C  0.87885955  0.00791308  0.53903677    -0.14800
C1419       C  0.87818306  0.04108068  0.51940541     0.07300
C1420       C  0.87993380  0.03641685  0.98543134    -0.14800
H1421       H  0.87920370  0.99707051  0.94512999     0.11300
H1422       H  0.87724784  0.94597102  0.54075370     0.11300
H1423       H  0.87774527  0.01045684  0.56523057     0.11300
H1424       H  0.87988888  0.06140407  0.96955365     0.11300
C1425       C  0.85115377  0.73645960  0.85788359    -0.14800
C1426       C  0.87199271  0.76802949  0.86046688     0.07300
C1427       C  0.89406874  0.77420999  0.83567709    -0.14800
C1428       C  0.89481670  0.74977657  0.80854130    -0.14800
C1429       C  0.87320367  0.71900272  0.80544743     0.07300
C1430       C  0.85160231  0.71241531  0.83061578    -0.14800
H1431       H  0.83398050  0.73075915  0.87672329     0.11300
H1432       H  0.91072475  0.79789489  0.83725917     0.11300
H1433       H  0.91153195  0.75595792  0.78938113     0.11300
H1434       H  0.83445667  0.68928146  0.82885356     0.11300
C1435       C  0.85024072  0.79461331  0.58027485    -0.14800
C1436       C  0.87214250  0.78883787  0.55525115     0.07300
C1437       C  0.89411051  0.75841701  0.55825132    -0.14800
C1438       C  0.89360979  0.73374955  0.58525114    -0.14800
C1439       C  0.87143236  0.73934115  0.61003227     0.07300
C1440       C  0.85004860  0.77035445  0.60742364    -0.14800
H1441       H  0.83276553  0.81736236  0.57855086     0.11300
H1442       H  0.91104076  0.75278880  0.53917235     0.11300
H1443       H  0.91063804  0.71047694  0.58681826     0.11300
H1444       H  0.83272954  0.77553256  0.62622632     0.11300
C1445       C  0.12704785  0.97094917  0.52393189    -0.14800
C1446       C  0.12644908  0.96625898  0.98991327     0.07300
C1447       C  0.12307773  0.99924699  0.97036636    -0.14800
C1448       C  0.12292811  0.03620776  0.48440581    -0.14800
C1449       C  0.12600164  0.04090961  0.51827759     0.07300
C1450       C  0.12678590  0.00783188  0.53794206    -0.14800
H1451       H  0.12928876  0.94610733  0.53979922     0.11300
H1452       H  0.12233402  0.99665602  0.94416317     0.11300
H1453       H  0.12193043  0.06121499  0.96857972     0.11300
H1454       H  0.12909992  0.01043519  0.56405088     0.11300
C1455       C  0.15119532  0.71045899  0.83138438    -0.14800
C1456       C  0.13029507  0.71799808  0.80575489     0.07300
C1457       C  0.10933111  0.74945618  0.80854523    -0.14800
C1458       C  0.11003650  0.77360621  0.83583054    -0.14800
C1459       C  0.13138336  0.76647187  0.86112785     0.07300
C1460       C  0.15155621  0.73422904  0.85885994    -0.14800
H1461       H  0.16783900  0.68678121  0.82984253     0.11300
H1462       H  0.09319704  0.75641073  0.78902955     0.11300
H1463       H  0.09393236  0.79786456  0.83710408     0.11300
H1464       H  0.16817167  0.72782014  0.87808069     0.11300
C1465       C  0.15184289  0.79748135  0.58141015    -0.14800
C1466       C  0.13065606  0.79031364  0.55595194     0.07300
C1467       C  0.10969513  0.75884506  0.55862457    -0.14800
C1468       C  0.11059945  0.73436236  0.58566036    -0.14800
C1469       C  0.13213636  0.74119308  0.61083274     0.07300
C1470       C  0.15241006  0.77336664  0.60864880    -0.14800
H1471       H  0.16852567  0.82113391  0.57990840     0.11300
H1472       H  0.09339209  0.75214725  0.53919116     0.11300
H1473       H  0.09444594  0.71014618  0.58687461     0.11300
H1474       H  0.16919105  0.77951919  0.62778345     0.11300
C1475       C  0.01808112  0.80064459  0.94555878    -0.14800
C1476       C  0.03495026  0.83550830  0.94244960     0.07300
C1477       C  0.01812826  0.87040629  0.93976954    -0.14800
C1478       C  0.98524899  0.87046192  0.93986642    -0.14800
C1479       C  0.96833852  0.83561688  0.94261577     0.07300
C1480       C  0.98511080  0.80069792  0.94563491    -0.14800
H1481       H  0.03034301  0.77327216  0.44774614     0.11300
H1482       H  0.03036467  0.89778176  0.93738768     0.11300
H1483       H  0.97308202  0.89788296  0.93753436     0.11300
H1484       H  0.97277424  0.77337267  0.44787038     0.11300
C1485       C  0.37908150  0.53621422  0.98454707    -0.14800
C1486       C  0.37713586  0.54080353  0.51852188     0.07300
C1487       C  0.37751229  0.50766977  0.53814552    -0.14800
C1488       C  0.37737866  0.47079317  0.52406127    -0.14800
C1489       C  0.37695826  0.46621188  0.99002868     0.07300
C1490       C  0.37905590  0.49931583  0.97045492    -0.14800
H1491       H  0.37913287  0.56123628  0.96870463     0.11300
H1492       H  0.37608632  0.51018399  0.56432612     0.11300
H1493       H  0.37609177  0.44582923  0.53990699     0.11300
H1494       H  0.37889746  0.49681994  0.94423141     0.11300
C1495       C  0.28156906  0.76800021  0.99770901    -0.14800
C1496       C  0.27754248  0.73799598  0.52019329     0.07300
C1497       C  0.24727750  0.72283342  0.52573893    -0.14800
C1498       C  0.22139671  0.73760438  0.50915572    -0.14800
C1499       C  0.22540358  0.76781158  0.98685021     0.07300
C1500       C  0.25570179  0.78274577  0.98111119    -0.14800
H1501       H  0.30477032  0.77939951  0.99233812     0.11300
H1502       H  0.24365752  0.69924866  0.54268248     0.11300
H1503       H  0.19818899  0.72623382  0.51454809     0.11300
H1504       H  0.25933334  0.80633667  0.96417646     0.11300
C1505       C  0.25160621  0.61040810  0.59519204    -0.14800
C1506       C  0.28068562  0.61212371  0.61152142     0.07300
C1507       C  0.28054390  0.61230596  0.64570431    -0.14800
C1508       C  0.25209704  0.61210538  0.66307019    -0.14800
C1509       C  0.22301689  0.61245827  0.64671505     0.07300
C1510       C  0.22314363  0.61095745  0.61255469    -0.14800
H1511       H  0.25079862  0.61072423  0.56891486     0.11300
H1512       H  0.30247347  0.61386571  0.65906858     0.11300
H1513       H  0.25289107  0.61377126  0.68931257     0.11300
H1514       H  0.20118344  0.61142417  0.59918294     0.11300
C1515       C  0.62633550  0.53696695  0.48359879    -0.14800
C1516       C  0.62617713  0.54168308  0.51762115    -0.05500
C1517       C  0.62338404  0.50863928  0.53720615    -0.14800
C1518       C  0.62352578  0.47165429  0.52319399    -0.14800
C1519       C  0.62627922  0.46694666  0.98929494     0.07300
C1520       C  0.62633374  0.50003840  0.96960559    -0.14800
H1521       H  0.62807491  0.56185178  0.46770989     0.11300
H1522       H  0.62295888  0.51123012  0.56341677     0.11300
H1523       H  0.62302666  0.44665846  0.53905746     0.11300
H1524       H  0.62830224  0.49744853  0.94346898     0.11300
C1525       C  0.74730208  0.78381970  0.98083166    -0.14800
C1526       C  0.77762419  0.76898859  0.98656195     0.07300
C1527       C  0.78182567  0.73951567  0.50952419    -0.14800
C1528       C  0.75607567  0.72503474  0.52647619    -0.14800
C1529       C  0.72573072  0.73971463  0.52061764     0.07300
C1530       C  0.72155051  0.76933837  0.99778458    -0.14800
H1531       H  0.74355768  0.80699519  0.96352282     0.11300
H1532       H  0.80508908  0.72841082  0.51504735     0.11300
H1533       H  0.75982333  0.70187090  0.54379486     0.11300
H1534       H  0.69829008  0.78045926  0.99227125     0.11300
C1535       C  0.72267549  0.61218010  0.64584751    -0.14800
C1536       C  0.72259251  0.61255074  0.61165098     0.07300
C1537       C  0.75173448  0.61099004  0.59544960    -0.14800
C1538       C  0.78017276  0.61117851  0.61290940    -0.14800
C1539       C  0.78028701  0.61218160  0.64708410     0.07300
C1540       C  0.75112540  0.61163126  0.66332259    -0.14800
H1541       H  0.70071006  0.61355649  0.65914285     0.11300
H1542       H  0.75262444  0.61168966  0.56918261     0.11300
H1543       H  0.80214359  0.61178696  0.59958675     0.11300
H1544       H  0.75026990  0.61285526  0.68957987     0.11300
C1545       C  0.51816650  0.63780003  0.56510014    -0.14800
C1546       C  0.53494838  0.67288808  0.56426563     0.07300
C1547       C  0.51802277  0.70785709  0.56311113    -0.14800
C1548       C  0.48504598  0.70771254  0.56338517    -0.14800
C1549       C  0.46831639  0.67259813  0.56480542     0.07300
C1550       C  0.48528027  0.63765617  0.56538013    -0.14800
H1551       H  0.53044516  0.61032476  0.56583328     0.11300
H1552       H  0.53024630  0.73537181  0.56236509     0.11300
H1553       H  0.47267266  0.73512275  0.56281128     0.11300
H1554       H  0.47315151  0.61008017  0.56629369     0.11300
C1555       C  0.62553586  0.97161951  0.73372699    -0.14800
C1556       C  0.62655400  0.96698488  0.76773568     0.07300
C1557       C  0.62501645  0.00006456  0.78739647    -0.14800
C1558       C  0.62492689  0.03698539  0.77336847    -0.14800
C1559       C  0.62627549  0.04162291  0.73937134     0.07300
C1560       C  0.62533465  0.00852371  0.71970491    -0.14800
H1561       H  0.62638666  0.94666332  0.71783078     0.11300
H1562       H  0.62567148  0.99751727  0.81360590     0.11300
H1563       H  0.62531857  0.06196890  0.78925596     0.11300
H1564       H  0.62625953  0.01107053  0.69350405     0.11300
C1565       C  0.78265502  0.76995428  0.75896638    -0.14800
C1566       C  0.77849494  0.74103740  0.73548865     0.07300
C1567       C  0.74806744  0.72733987  0.72855512    -0.14800
C1568       C  0.72220554  0.74183884  0.74530063    -0.14800
C1569       C  0.72640343  0.77032031  0.76913674     0.07300
C1570       C  0.75678448  0.78446730  0.77570578    -0.14800
H1571       H  0.80597291  0.78030861  0.76525395     0.11300
H1572       H  0.74435955  0.70479104  0.71065656     0.11300
H1573       H  0.69889534  0.73141521  0.73907532     0.11300
H1574       H  0.76050191  0.80695363  0.79365736     0.11300
C1575       C  0.78053178  0.89707679  0.86228201    -0.14800
C1576       C  0.78064058  0.89619362  0.89645849     0.07300
C1577       C  0.75152355  0.89692415  0.91274102    -0.14800
C1578       C  0.72307938  0.89652772  0.89532483    -0.14800
C1579       C  0.72297290  0.89614535  0.86114676     0.07300
C1580       C  0.75208020  0.89743544  0.84486655    -0.14800
H1581       H  0.80249301  0.89627541  0.84894608     0.11300
H1582       H  0.75069003  0.89573707  0.93899879     0.11300
H1583       H  0.70112744  0.89529403  0.90865444     0.11300
H1584       H  0.75291407  0.89665290  0.81859697     0.11300
C1585       C  0.65282053  0.73500874  0.89868307    -0.14800
C1586       C  0.63222986  0.76685005  0.89622496     0.07300
C1587       C  0.61039552  0.77328937  0.92119252    -0.14800
C1588       C  0.60965503  0.74893335  0.94835626    -0.14800
C1589       C  0.63105249  0.71794125  0.95139637     0.07300
C1590       C  0.65242184  0.71103634  0.92605724    -0.14800
H1591       H  0.66979364  0.72908011  0.87969714     0.11300
H1592       H  0.59393902  0.79716084  0.91976014     0.11300
H1593       H  0.59310841  0.75538898  0.96761198     0.11300
H1594       H  0.66938702  0.68773359  0.92776177     0.11300
C1595       C  0.60882805  0.76059359  0.69820803    -0.14800
C1596       C  0.63091282  0.79085894  0.70140002     0.07300
C1597       C  0.65269168  0.79691970  0.67629598    -0.14800
C1598       C  0.65284532  0.77280667  0.64902790    -0.14800
C1599       C  0.63155945  0.74167596  0.64641558     0.07300
C1600       C  0.60930522  0.73607963  0.67112331    -0.14800
H1601       H  0.59191719  0.75482076  0.71727992     0.11300
H1602       H  0.67019108  0.81962231  0.67812469     0.11300
H1603       H  0.67016866  0.77804867  0.63023820     0.11300
H1604       H  0.59230999  0.71278212  0.66952331     0.11300
C1605       C  0.37652358  0.97094242  0.73473404    -0.14800
C1606       C  0.37734907  0.96634711  0.76876258     0.07300
C1607       C  0.38019440  0.99949487  0.78823161    -0.14800
C1608       C  0.37973396  0.03642492  0.77408070    -0.14800
C1609       C  0.37658077  0.04092983  0.74018706     0.07300
C1610       C  0.37616935  0.00775630  0.72063028    -0.14800
H1611       H  0.37461802  0.94601377  0.71890264     0.11300
H1612       H  0.38102922  0.99700323  0.81442727     0.11300
H1613       H  0.38042695  0.06152935  0.78982827     0.11300
H1614       H  0.37377666  0.01018813  0.69452923     0.11300
C1615       C  0.35124537  0.73415454  0.89924429    -0.14800
C1616       C  0.37249762  0.76530115  0.89655309     0.07300
C1617       C  0.39476943  0.77102583  0.92124870    -0.14800
C1618       C  0.39527042  0.74670230  0.94843337    -0.14800
C1619       C  0.37317850  0.71649270  0.95176213     0.07300
C1620       C  0.35141633  0.71022157  0.92663557    -0.14800
H1621       H  0.33391976  0.72881113  0.88046022     0.11300
H1622       H  0.41174563  0.79433841  0.91958913     0.11300
H1623       H  0.41217655  0.75262149  0.96749166     0.11300
H1624       H  0.33392008  0.68752310  0.92855758     0.11300
C1625       C  0.39544261  0.76027389  0.69821651    -0.14800
C1626       C  0.37343324  0.79054791  0.70168682     0.07300
C1627       C  0.35131854  0.79657160  0.67684722    -0.14800
C1628       C  0.35072162  0.77235894  0.64962589    -0.14800
C1629       C  0.37191103  0.74118352  0.64679100     0.07300
C1630       C  0.39452330  0.73567125  0.67119566    -0.14800
H1631       H  0.41261084  0.75452330  0.71706014     0.11300
H1632       H  0.33386253  0.81928818  0.67888397     0.11300
H1633       H  0.33314453  0.77755138  0.63106473     0.11300
H1634       H  0.41147134  0.71235280  0.66940955     0.11300
C1635       C  0.48599713  0.79937625  0.81487215    -0.14800
C1636       C  0.46908537  0.83437712  0.81437177     0.07300
C1637       C  0.48583468  0.86944688  0.81296376    -0.14800
C1638       C  0.51870912  0.86960178  0.81275036    -0.14800
C1639       C  0.53567354  0.83469121  0.81397271     0.07300
C1640       C  0.51896870  0.79953194  0.81467069    -0.14800
H1641       H  0.47377334  0.77187198  0.81587346     0.11300
H1642       H  0.47353908  0.89691264  0.81227359     0.11300
H1643       H  0.53083714  0.89718168  0.81192432     0.11300
H1644       H  0.53135995  0.77214217  0.81553573     0.11300
C1645       C  0.28201051  0.73798931  0.74864337    -0.14800
C1646       C  0.27820587  0.76885940  0.77033151     0.07300
C1647       C  0.24808368  0.78477153  0.77522613    -0.14800
C1648       C  0.22217280  0.77009629  0.75862853    -0.14800
C1649       C  0.22596965  0.73919477  0.73697657     0.07300
C1650       C  0.25609724  0.72330765  0.73205120    -0.14800
H1651       H  0.30508516  0.72587018  0.74384952     0.11300
H1652       H  0.24459965  0.80895197  0.79160122     0.11300
H1653       H  0.19909465  0.78219038  0.76344415     0.11300
H1654       H  0.25957083  0.69910099  0.71569887     0.11300
C1655       C  0.25241167  0.89546150  0.84560221    -0.14800
C1656       C  0.28142906  0.89393103  0.86206733     0.07300
C1657       C  0.28109992  0.89388784  0.89625718    -0.14800
C1658       C  0.25252735  0.89435938  0.91346732    -0.14800
C1659       C  0.22349864  0.89410229  0.89695331     0.07300
C1660       C  0.22384760  0.89515299  0.86279617    -0.14800
H1661       H  0.25172676  0.89495986  0.81932510     0.11300
H1662       H  0.30296549  0.89239929  0.90973966     0.11300
H1663       H  0.25317138  0.89297154  0.93972720     0.11300
H1664       H  0.20196791  0.89466988  0.84929241     0.11300
loop_ 
_geom_bond_atom_site_label_1 
_geom_bond_atom_site_label_2 
_geom_bond_distance 
_geom_bond_site_symmetry_2 
_ccdc_geom_bond_type 
O1          Cr19   1.985       .  S
O1            C9   1.261       .  A
O2          Cr19   2.037       .  S
O2            C3   1.273       .  A
C3            O4   1.256       .  A
C3          C784   1.482       .  S
O4          Cr20   1.960       .  S
O5          Cr20   2.021       .  S
O5            C6   1.269       .  A
C6            O7   1.251       .  A
C6          C814   1.463       .  S
O7          Cr21   1.943       .  S
O8          Cr21   2.024       .  S
O8            C9   1.270       .  A
C9          C824   1.494       .  S
O10         Cr19   2.047       .  S
O10          C18   1.276       .  A
O11         Cr19   1.971       .  S
O11          C12   1.262       .  A
C12          O13   1.270       .  A
C12         C804   1.481       .  S
O13         Cr20   2.018       .  S
O14         Cr20   1.966       .  S
O14          C15   1.257       .  A
C15          O16   1.271       .  A
C15         C794   1.484       .  S
O16         Cr21   2.030       .  S
O17         Cr21   1.953       .  S
O17          C18   1.255       .  A
C18         C774   1.487       .  S
Cr19         O22   1.765       .  S
Cr20         O22   1.765       .  S
Cr21         O22   1.757       .  S
O23         Cr41   2.042       .  S
O23          C31   1.275       .  A
O24         Cr41   1.971       .  S
O24          C25   1.262       .  A
C25          O26   1.270       .  A
C25         C807   1.481       .  S
O26         Cr42   2.018       .  S
O27         Cr42   1.964       .  S
O27          C28   1.257       .  A
C28          O29   1.271       .  A
C28         C764   1.483       .  S
O29         Cr43   2.031       .  S
O30         Cr43   1.955       .  S
O30          C31   1.256       .  A
C31         C724   1.484       .  S
O32         Cr41   1.983       .  S
O32          C40   1.261       .  A
O33         Cr41   2.037       .  S
O33          C34   1.273       .  A
C34          O35   1.256       .  A
C34         C754   1.483       .  S
O35         Cr42   1.960       .  S
O36         Cr42   2.019       .  S
O36          C37   1.268       .  A
C37          O38   1.251       .  A
C37         C737   1.461       .  S
O38         Cr43   1.945       .  S
O39         Cr43   2.023       .  S
O39          C40   1.270       .  A
C40         C747   1.493       .  S
Cr41         O44   1.764       .  S
Cr42         O44   1.764       .  S
Cr43         O44   1.758       .  S
O45         Cr63   1.986       .  S
O45          C53   1.261       .  A
O46         Cr63   2.038       .  S
O46          C47   1.273       .  A
C47          O48   1.255       .  A
C47         C767   1.482       .  S
O48         Cr64   1.958       .  S
O49         Cr64   2.018       .  S
O49          C50   1.268       .  A
C50          O51   1.252       .  A
C50         C697   1.462       .  S
O51         Cr65   1.946       .  S
O52         Cr65   2.025       .  S
O52          C53   1.271       .  A
C53         C704   1.495       .  S
O54         Cr63   2.043       .  S
O54          C62   1.276       .  A
O55         Cr63   1.971       .  S
O55          C56   1.262       .  A
C56          O57   1.270       .  A
C56         C714   1.482       .  S
O57         Cr64   2.019       .  S
O58        Cr896   1.965       .  S
O58          C59   1.258       .  A
C59          O60   1.271       .  A
C59         C757   1.484       .  S
O60        Cr897   2.031       .  S
O61         Cr65   1.957       .  S
O61          C62   1.256       .  A
C62         C684   1.487       .  S
Cr63         O66   1.766       .  S
Cr64        O890   1.965       .  S
Cr64         O66   1.765       .  S
Cr65        O892   2.031   1_554  S
Cr65         O66   1.759       .  S
O67         Cr85   2.042       .  S
O67          C75   1.275       .  A
O68         Cr85   1.971       .  S
O68          C69   1.262       .  A
C69          O70   1.270       .  A
C69         C717   1.482       .  S
O70         Cr86   2.019       .  S
O71        Cr918   1.965       .  S
O71          C72   1.257       .  A
C72          O73   1.270       .  A
C72         C787   1.483       .  S
O73        Cr919   2.030       .  S
O74         Cr87   1.955       .  S
O74          C75   1.255       .  A
C75         C654   1.484       .  S
O76         Cr85   1.982       .  S
O76          C84   1.261       .  A
O77         Cr85   2.037       .  S
O77          C78   1.273       .  A
C78          O79   1.256       .  A
C78         C797   1.483       .  S
O79         Cr86   1.961       .  S
O80         Cr86   2.020       .  S
O80          C81   1.268       .  A
C81          O82   1.251       .  A
C81         C664   1.462       .  S
O82         Cr87   1.944       .  S
O83         Cr87   2.024       .  S
O83          C84   1.270       .  A
C84         C674   1.493       .  S
Cr85         O88   1.765       .  S
Cr86        O903   1.965       .  S
Cr86         O88   1.764       .  S
Cr87        O905   2.030   1_554  S
Cr87         O88   1.759       .  S
O89        Cr107   1.986       .  S
O89          C97   1.261       .  A
O90        Cr107   2.033       .  S
O90          C91   1.272       .  A
C91          O92   1.256       .  A
C91         C627   1.481       .  S
O92        Cr108   1.959       .  S
O93        Cr108   2.019       .  S
O93          C94   1.268       .  A
C94          O95   1.251       .  A
C94         C667   1.462       .  S
O95        Cr109   1.944       .  S
O96        Cr109   2.021       .  S
O96          C97   1.269       .  A
C97         C827   1.494       .  S
O98        Cr107   2.043       .  S
O98         C106   1.276       .  A
O99        Cr107   1.972       .  S
O99         C100   1.262       .  A
C100        O101   1.270       .  A
C100        C644   1.482       .  S
O101       Cr108   2.016       .  S
O102       Cr940   1.965   1_554  S
O102        C103   1.257       .  A
C103        O104   1.269       .  A
C103        C634   1.480       .  S
O104       Cr941   2.025   1_554  S
O105       Cr109   1.954       .  S
O105        C106   1.256       .  A
C106        C614   1.486       .  S
Cr107       O110   1.765       .  S
Cr108       O934   1.965       .  S
Cr108       O110   1.765       .  S
Cr109       O936   2.025       .  S
Cr109       O110   1.760       .  S
O111       Cr129   2.042       .  S
O111        C119   1.276       .  A
O112       Cr129   1.970       .  S
O112        C113   1.262       .  A
C113        O114   1.270       .  A
C113        C647   1.481       .  S
O114       Cr130   2.017       .  S
O115       Cr962   1.964   1_554  S
O115        C116   1.257       .  A
C116        O117   1.271       .  A
C116        C604   1.483       .  S
O117       Cr963   2.031   1_554  S
O118       Cr131   1.960       .  S
O118        C119   1.257       .  A
C119        C584   1.487       .  S
O120       Cr129   1.984       .  S
O120        C128   1.261       .  A
O121       Cr129   2.037       .  S
O121        C122   1.272       .  A
C122        O123   1.255       .  A
C122        C594   1.481       .  S
O123       Cr130   1.956       .  S
O124       Cr130   2.018       .  S
O124        C125   1.268       .  A
C125        O126   1.251       .  A
C125        C694   1.462       .  S
O126       Cr131   1.947       .  S
O127       Cr131   2.023       .  S
O127        C128   1.270       .  A
C128        C744   1.493       .  S
Cr129       O132   1.765       .  S
Cr130       O947   1.964       .  S
Cr130       O132   1.765       .  S
Cr131       O949   2.031       .  S
Cr131       O132   1.759       .  S
O133       Cr151   1.986       .  S
O133        C141   1.261       .  A
O134       Cr151   2.038       .  S
O134        C135   1.273       .  A
C135        O136   1.255       .  A
C135        C607   1.482       .  S
O136       Cr152   1.956       .  S
O137       Cr152   2.016       .  S
O137        C138   1.267       .  A
C138        O139   1.252       .  A
C138        C734   1.461       .  S
O139       Cr153   1.948       .  S
O140       Cr153   2.023       .  S
O140        C141   1.270       .  A
C141        C707   1.495       .  S
O142       Cr151   2.042       .  S
O142        C150   1.276       .  A
O143       Cr151   1.972       .  S
O143        C144   1.262       .  A
C144        O145   1.269       .  A
C144        C574   1.482       .  S
O145       Cr152   2.015       .  S
O146       Cr152   1.965       .  S
O146        C147   1.258       .  A
C147        O148   1.270       .  A
C147        C597   1.482       .  S
O148       Cr153   2.027       .  S
O149       Cr153   1.959       .  S
O149        C150   1.257       .  A
C150        C564   1.487       .  S
Cr151       O154   1.766       .  S
Cr152       O154   1.766       .  S
Cr153       O154   1.760       .  S
O155       Cr173   2.040       .  S
O155        C163   1.275       .  A
O156       Cr173   1.968       .  S
O156        C157   1.261       .  A
C157        O158   1.271       .  A
C157        C577   1.481       .  S
O158       Cr174   2.020       .  S
O159       Cr174   1.964       .  S
O159        C160   1.257       .  A
C160        O161   1.270       .  A
C160        C624   1.482       .  S
O161       Cr175   2.029       .  S
O162       Cr175   1.958       .  S
O162        C163   1.256       .  A
C163        C554   1.484       .  S
O164       Cr173   1.982       .  S
O164        C172   1.261       .  A
O165       Cr173   2.033       .  S
O165        C166   1.272       .  A
C166        O167   1.255       .  A
C166        C637   1.480       .  S
O167       Cr174   1.958       .  S
O168       Cr174   2.021       .  S
O168        C169   1.269       .  A
C169        O170   1.251       .  A
C169        C817   1.463       .  S
O170       Cr175   1.943       .  S
O171       Cr175   2.024       .  S
O171        C172   1.270       .  A
C172        C677   1.492       .  S
Cr173       O176   1.764       .  S
Cr174       O176   1.765       .  S
Cr175       O176   1.757       .  S
O177       Cr195   1.986       .  S
O177        C185   1.262       .  A
O178       Cr195   2.036       .  S
O178        C179   1.273       .  A
C179        O180   1.256       .  A
C179        C524   1.483       .  S
O180       Cr196   1.959       .  S
O181       Cr196   2.020       .  S
O181        C182   1.268       .  A
C182        O183   1.251       .  A
C182        C504   1.463       .  S
O183       Cr197   1.946       .  S
O184       Cr197   2.022       .  S
O184        C185   1.270       .  A
C185        C514   1.493       .  S
O186       Cr195   2.041       .  S
O186        C194   1.275       .  A
O187       Cr195   1.972       .  S
O187        C188   1.262       .  A
C188        O189   1.270       .  A
C188        C544   1.483       .  S
O189       Cr196   2.018       .  S
O190      Cr1028   1.964   1_554  S
O190        C191   1.257       .  A
C191        O192   1.270       .  A
C191        C534   1.483       .  S
O192      Cr1029   2.029   1_554  S
O193       Cr197   1.959       .  S
O193        C194   1.257       .  A
C194        C687   1.485       .  S
Cr195       O198   1.765       .  S
Cr196      O1022   1.964       .  S
Cr196       O198   1.765       .  S
Cr197      O1024   2.029       .  S
Cr197       O198   1.760       .  S
O199       Cr217   2.042       .  S
O199        C207   1.276       .  A
O200       Cr217   1.972       .  S
O200        C201   1.262       .  A
C201        O202   1.270       .  A
C201        C547   1.484       .  S
O202       Cr218   2.019       .  S
O203      Cr1050   1.966   1_554  S
O203        C204   1.257       .  A
C204        O205   1.270       .  A
C204        C474   1.484       .  S
O205      Cr1051   2.029   1_554  S
O206       Cr219   1.956       .  S
O206        C207   1.256       .  A
C207        C657   1.485       .  S
O208       Cr217   1.985       .  S
O208        C216   1.261       .  A
O209       Cr217   2.035       .  S
O209        C210   1.272       .  A
C210        O211   1.255       .  A
C210        C464   1.482       .  S
O211       Cr218   1.958       .  S
O212       Cr218   2.019       .  S
O212        C213   1.268       .  A
C213        O214   1.252       .  A
C213        C484   1.463       .  S
O214       Cr219   1.945       .  S
O215       Cr219   2.024       .  S
O215        C216   1.270       .  A
C216        C494   1.494       .  S
Cr217       O220   1.766       .  S
Cr218      O1035   1.966       .  S
Cr218       O220   1.765       .  S
Cr219      O1037   2.029       .  S
Cr219       O220   1.760       .  S
O221       Cr239   1.982       .  S
O221        C229   1.260       .  A
O222       Cr239   2.036       .  S
O222        C223   1.272       .  A
C223        O224   1.256       .  A
C223        C477   1.481       .  S
O224       Cr240   1.959       .  S
O225       Cr240   2.018       .  S
O225        C226   1.267       .  A
C226        O227   1.251       .  A
C226        C454   1.462       .  S
O227       Cr241   1.946       .  S
O228       Cr241   2.024       .  S
O228        C229   1.270       .  A
C229        C444   1.493       .  S
O230       Cr239   2.040       .  S
O230        C238   1.275       .  A
O231       Cr239   1.972       .  S
O231        C232   1.262       .  A
C232        O233   1.270       .  A
C232        C434   1.484       .  S
O233       Cr240   2.019       .  S
O234       Cr240   1.965       .  S
O234        C235   1.258       .  A
C235        O236   1.271       .  A
C235        C467   1.483       .  S
O236       Cr241   2.030       .  S
O237       Cr241   1.959       .  S
O237        C238   1.256       .  A
C238        C777   1.484       .  S
Cr239       O242   1.765       .  S
Cr240       O242   1.765       .  S
Cr241       O242   1.760       .  S
O243       Cr261   2.041       .  S
O243        C251   1.275       .  A
O244       Cr261   1.971       .  S
O244        C245   1.262       .  A
C245        O246   1.271       .  A
C245        C437   1.484       .  S
O246       Cr262   2.021       .  S
O247       Cr262   1.965       .  S
O247        C248   1.257       .  A
C248        O249   1.270       .  A
C248        C527   1.483       .  S
O249       Cr263   2.029       .  S
O250       Cr263   1.957       .  S
O250        C251   1.256       .  A
C251        C727   1.484       .  S
O252       Cr261   1.985       .  S
O252        C260   1.262       .  A
O253       Cr261   2.037       .  S
O253        C254   1.272       .  A
C254        O255   1.255       .  A
C254        C537   1.481       .  S
O255       Cr262   1.958       .  S
O256       Cr262   2.021       .  S
O256        C257   1.269       .  A
C257        O258   1.252       .  A
C257        C424   1.465       .  S
O258       Cr263   1.945       .  S
O259       Cr263   2.024       .  S
O259        C260   1.270       .  A
C260        C414   1.495       .  S
Cr261       O264   1.766       .  S
Cr262       O264   1.764       .  S
Cr263       O264   1.760       .  S
O265       Cr283   1.983       .  S
O265        C273   1.261       .  A
O266       Cr283   2.036       .  S
O266        C267   1.272       .  A
C267        O268   1.256       .  A
C267        C394   1.483       .  S
O268       Cr284   1.962       .  S
O269       Cr284   2.021       .  S
O269        C270   1.269       .  A
C270        O271   1.252       .  A
C270        C427   1.465       .  S
O271       Cr285   1.945       .  S
O272       Cr285   2.024       .  S
O272        C273   1.270       .  A
C273        C517   1.493       .  S
O274       Cr283   2.042       .  S
O274        C282   1.275       .  A
O275       Cr283   1.968       .  S
O275        C276   1.261       .  A
C276        O277   1.270       .  A
C276        C404   1.480       .  S
O277       Cr284   2.018       .  S
O278       Cr284   1.966       .  S
O278        C279   1.258       .  A
C279        O280   1.270       .  A
C279        C384   1.484       .  S
O280       Cr285   2.030       .  S
O281       Cr285   1.958       .  S
O281        C282   1.256       .  A
C282        C567   1.485       .  S
Cr283       O286   1.765       .  S
Cr284       O286   1.765       .  S
Cr285       O286   1.758       .  S
O287       Cr305   2.045       .  S
O287        C295   1.276       .  A
O288       Cr305   1.970       .  S
O288        C289   1.262       .  A
C289        O290   1.269       .  A
C289        C407   1.480       .  S
O290       Cr306   2.015       .  S
O291       Cr306   1.967       .  S
O291        C292   1.258       .  A
C292        O293   1.270       .  A
C292        C364   1.483       .  S
O293       Cr307   2.028       .  S
O294       Cr307   1.956       .  S
O294        C295   1.256       .  A
C295        C557   1.487       .  S
O296       Cr305   1.984       .  S
O296        C304   1.261       .  A
O297       Cr305   2.037       .  S
O297        C298   1.273       .  A
C298        O299   1.256       .  A
C298        C374   1.484       .  S
O299       Cr306   1.961       .  S
O300       Cr306   2.017       .  S
O300        C301   1.268       .  A
C301        O302   1.251       .  A
C301        C457   1.461       .  S
O302       Cr307   1.945       .  S
O303       Cr307   2.023       .  S
O303        C304   1.270       .  A
C304        C497   1.493       .  S
Cr305       O308   1.765       .  S
Cr306       O308   1.766       .  S
Cr307       O308   1.759       .  S
O309       Cr327   1.980       .  S
O309        C317   1.260       .  A
O310       Cr327   2.035       .  S
O310        C311   1.272       .  A
C311        O312   1.256       .  A
C311        C367   1.482       .  S
O312       Cr328   1.960       .  S
O313       Cr328   2.019       .  S
O313        C314   1.268       .  A
C314        O315   1.251       .  A
C314        C487   1.462       .  S
O315       Cr329   1.944       .  S
O316       Cr329   2.024       .  S
O316        C317   1.270       .  A
C317        C447   1.492       .  S
O318       Cr327   2.040       .  S
O318        C326   1.275       .  A
O319       Cr327   1.968       .  S
O319        C320   1.262       .  A
C320        O321   1.270       .  A
C320        C354   1.481       .  S
O321       Cr328   2.019       .  S
O322      Cr1160   1.967       .  S
O322        C323   1.258       .  A
C323        O324   1.270       .  A
C323        C377   1.485       .  S
O324      Cr1161   2.030       .  S
O325       Cr329   1.958       .  S
O325        C326   1.256       .  A
C326        C617   1.483       .  S
Cr327       O330   1.765       .  S
Cr328      O1154   1.967       .  S
Cr328       O330   1.765       .  S
Cr329      O1156   2.030   1_554  S
Cr329       O330   1.759       .  S
O331       Cr349   2.044       .  S
O331        C339   1.276       .  A
O332       Cr349   1.969       .  S
O332        C333   1.261       .  A
C333        O334   1.270       .  A
C333        C357   1.481       .  S
O334       Cr350   2.018       .  S
O335      Cr1182   1.967       .  S
O335        C336   1.258       .  A
C336        O337   1.270       .  A
C336        C397   1.484       .  S
O337      Cr1183   2.030       .  S
O338       Cr351   1.958       .  S
O338        C339   1.256       .  A
C339        C587   1.487       .  S
O340       Cr349   1.984       .  S
O340        C348   1.261       .  A
O341       Cr349   2.036       .  S
O341        C342   1.273       .  A
C342        O343   1.256       .  A
C342        C387   1.482       .  S
O343       Cr350   1.961       .  S
O344       Cr350   2.017       .  S
O344        C345   1.268       .  A
C345        O346   1.252       .  A
C345        C507   1.462       .  S
O346       Cr351   1.946       .  S
O347       Cr351   2.025       .  S
O347        C348   1.271       .  A
C348        C417   1.494       .  S
Cr349       O352   1.765       .  S
Cr350      O1167   1.967       .  S
Cr350       O352   1.765       .  S
Cr351      O1169   2.030   1_554  S
Cr351       O352   1.759       .  S
C353        C354   1.405       .  A
C353        C358   1.396   1_455  A
C353        H359   1.083       .  S
C354        C355   1.406       .  A
C355        C356   1.399   1_455  A
C355        H360   1.083       .  S
C356        C357   1.406       .  A
C356        H361   1.083       .  S
C357        C358   1.406       .  A
C358        H362   1.083       .  S
C363        C364   1.404       .  A
C363        C368   1.399       .  A
C363        H369   1.083       .  S
C364        C365   1.409       .  A
C365        C366   1.400       .  A
C365        H370   1.083       .  S
C366        C367   1.403       .  A
C366        H371   1.083       .  S
C367        C368   1.408       .  A
C368        H372   1.083       .  S
C373        C374   1.409       .  A
C373        C378   1.400       .  A
C373        H379   1.083       .  S
C374        C375   1.403       .  A
C375        C376   1.401       .  A
C375        H380   1.083       .  S
C376        C377   1.409       .  A
C376        H381   1.083       .  S
C377        C378   1.404       .  A
C378        H382   1.083       .  S
C383        C384   1.409       .  A
C383        C388   1.400       .  A
C383        H389   1.083       .  S
C384        C385   1.405       .  A
C385        C386   1.400       .  A
C385        H390   1.083       .  S
C386        C387   1.408       .  A
C386        H391   1.083       .  S
C387        C388   1.402       .  A
C388        H392   1.082       .  S
C393        C394   1.408       .  A
C393        C398   1.399       .  A
C393        H399   1.083       .  S
C394        C395   1.403       .  A
C395        C396   1.401       .  A
C395        H400   1.083       .  S
C396        C397   1.409       .  A
C396        H401   1.083       .  S
C397        C398   1.404       .  A
C398        H402   1.083       .  S
C403        C404   1.405       .  A
C403        C408   1.399   1_655  A
C403        H409   1.083       .  S
C404        C405   1.405       .  A
C405        C406   1.395   1_655  A
C405        H410   1.083       .  S
C406        C407   1.405       .  A
C406        H411   1.083       .  S
C407        C408   1.406       .  A
C408        H412   1.083       .  S
C413        C414   1.408       .  A
C413        C418   1.406       .  A
C413        H419   1.083       .  S
C414        C415   1.408       .  A
C415        C416   1.405       .  A
C415        H420   1.083       .  S
C416        C417   1.407       .  A
C416        H421   1.083       .  S
C417        C418   1.409       .  A
C418        H422   1.083       .  S
C423        C424   1.407       .  A
C423        C428   1.392       .  A
C423        H429   1.084       .  S
C424        C425   1.400       .  A
C425        C426   1.391       .  A
C425        H430   1.083       .  S
C426        C427   1.406       .  A
C426        H431   1.083       .  S
C427        C428   1.401       .  A
C428        H432   1.084       .  S
C433        C434   1.406       .  A
C433        C438   1.401       .  A
C433        H439   1.083       .  S
C434        C435   1.406       .  A
C435        C436   1.397       .  A
C435        H440   1.083       .  S
C436        C437   1.406       .  A
C436        H441   1.083       .  S
C437        C438   1.406       .  A
C438        H442   1.083       .  S
C443        C444   1.409       .  A
C443        C448   1.405       .  A
C443        H449   1.083       .  S
C444        C445   1.406       .  A
C445        C446   1.404       .  A
C445        H450   1.083       .  S
C446        C447   1.408       .  A
C446        H451   1.083       .  S
C447        C448   1.406       .  A
C448        H452   1.083       .  S
C453        C454   1.401       .  A
C453        C458   1.391       .  A
C453        H459   1.084       .  S
C454        C455   1.405       .  A
C455        C456   1.390       .  A
C455        H460   1.084       .  S
C456        C457   1.401       .  A
C456        H461   1.084       .  S
C457        C458   1.405       .  A
C458        H462   1.084       .  S
C463        C464   1.402       .  A
C463        C468   1.400       .  A
C463        H469   1.083       .  S
C464        C465   1.408       .  A
C465        C466   1.398       .  A
C465        H470   1.083       .  S
C466        C467   1.404       .  A
C466        H471   1.083       .  S
C467        C468   1.409       .  A
C468        H472   1.083       .  S
C473        C474   1.404       .  A
C473        C478   1.398       .  A
C473        H479   1.083       .  S
C474        C475   1.410       .  A
C475        C476   1.401       .  A
C475        H480   1.083       .  S
C476        C477   1.403       .  A
C476        H481   1.082       .  S
C477        C478   1.408       .  A
C478        H482   1.083       .  S
C483        C484   1.406       .  A
C483        C488   1.391       .  A
C483        H489   1.084       .  S
C484       C1317   1.401       .  A
C485        C486   1.390       .  A
C485       C1316   1.401   1_554  A
C485        H490   1.084       .  S
C486        C487   1.406       .  A
C486        H491   1.084       .  S
C487       C1320   1.401   1_554  A
C488       C1319   1.401       .  A
C488        H492   1.084       .  S
C493        C494   1.407       .  A
C493        C498   1.405       .  A
C493        H499   1.083       .  S
C494        C495   1.409       .  A
C495        C496   1.405       .  A
C495        H500   1.083       .  S
C496        C497   1.407       .  A
C496        H501   1.083       .  S
C497        C498   1.408       .  A
C498        H502   1.083       .  S
C503        C508   1.391       .  A
C503       C1336   1.401   1_554  A
C503        H509   1.084       .  S
C504        C505   1.406       .  A
C504       C1335   1.401       .  A
C505        C506   1.390       .  A
C505        H510   1.084       .  S
C506       C1339   1.401       .  A
C506        H511   1.084       .  S
C507        C508   1.406       .  A
C507       C1338   1.401   1_554  A
C508        H512   1.084       .  S
C513        C514   1.407       .  A
C513        C518   1.404       .  A
C513        H519   1.083       .  S
C514        C515   1.408       .  A
C515        C516   1.405       .  A
C515        H520   1.083       .  S
C516        C517   1.407       .  A
C516        H521   1.083       .  S
C517        C518   1.408       .  A
C518        H522   1.083       .  S
C523        C524   1.403       .  A
C523        C528   1.400       .  A
C523        H529   1.083       .  S
C524        C525   1.409       .  A
C525        C526   1.399       .  A
C525        H530   1.083       .  S
C526        C527   1.403       .  A
C526        H531   1.083       .  S
C527        C528   1.409       .  A
C528        H532   1.083       .  S
C533        C534   1.403       .  A
C533        C538   1.398       .  A
C533        H539   1.083       .  S
C534        C535   1.410       .  A
C535        C536   1.401       .  A
C535        H540   1.083       .  S
C536        C537   1.403       .  A
C536        H541   1.083       .  S
C537        C538   1.408       .  A
C538        H542   1.083       .  S
C543        C544   1.406       .  A
C543        C548   1.401       .  A
C543       H1381   1.083       .  S
C544        C545   1.406       .  A
C545        C546   1.397       .  A
C545        H550   1.083       .  S
C546        C547   1.406       .  A
C546        H551   1.083       .  S
C547        C548   1.406       .  A
C548       H1384   1.083       .  S
H549       C1375   1.083       .  S
H552       C1380   1.083       .  S
C553        C554   1.401       .  A
C553        C558   1.399       .  A
C553        H559   1.084       .  S
C554        C555   1.411       .  A
C555        C556   1.401       .  A
C555        H560   1.083       .  S
C556        C557   1.402       .  A
C556        H561   1.084       .  S
C557        C558   1.411       .  A
C558        H562   1.083       .  S
C563        C564   1.402       .  A
C563        C568   1.400       .  A
C563        H569   1.084       .  S
C564        C565   1.412       .  A
C565        C566   1.401       .  A
C565        H570   1.083       .  S
C566        C567   1.402       .  A
C566        H571   1.084       .  S
C567        C568   1.410       .  A
C568        H572   1.083       .  S
C573        C574   1.406       .  A
C573        C578   1.400   1_655  A
C573        H579   1.083       .  S
C574        C575   1.405       .  A
C575        C576   1.396   1_655  A
C575        H580   1.083       .  S
C576        C577   1.406       .  A
C576        H581   1.083       .  S
C577        C578   1.405       .  A
C578        H582   1.083       .  S
C583        C584   1.402       .  A
C583        C588   1.400   1_565  A
C583        H589   1.084       .  S
C584       C1417   1.412       .  A
C585        C586   1.402   1_565  A
C585       C1416   1.412   1_554  A
C585        H590   1.083       .  S
C586        C587   1.402       .  A
C586        H591   1.084       .  S
C587       C1420   1.411   1_554  A
C588       C1419   1.411       .  A
C588        H592   1.083       .  S
C593        C594   1.408       .  A
C593        C598   1.397       .  A
C593        H599   1.083       .  S
C594        C595   1.403       .  A
C595        C596   1.401       .  A
C595        H600   1.083       .  S
C596        C597   1.409       .  A
C596        H601   1.083       .  S
C597        C598   1.403       .  A
C598        H602   1.083       .  S
C603        C604   1.403       .  A
C603        C608   1.398       .  A
C603        H609   1.083       .  S
C604        C605   1.410       .  A
C605        C606   1.401       .  A
C605        H610   1.083       .  S
C606        C607   1.403       .  A
C606        H611   1.083       .  S
C607        C608   1.408       .  A
C608        H612   1.083       .  S
C613        C618   1.398   1_565  A
C613       C1446   1.411   1_554  A
C613        H619   1.083       .  S
C614        C615   1.402       .  A
C614       C1445   1.411       .  A
C615       C1448   1.401   1_565  A
C615        H620   1.084       .  S
C616        C617   1.411   1_556  A
C616       C1447   1.401   1_545  A
C616       H1453   1.083       .  S
C617        C618   1.401       .  A
C618        H622   1.084       .  S
H621       C1448   1.083       .  S
C623        C624   1.403       .  A
C623        C628   1.398       .  A
C623        H629   1.083       .  S
C624        C625   1.409       .  A
C625        C626   1.400       .  A
C625        H630   1.083       .  S
C626        C627   1.403       .  A
C626        H631   1.083       .  S
C627        C628   1.408       .  A
C628        H632   1.083       .  S
C633        C634   1.403       .  A
C633        C638   1.398       .  A
C633        H639   1.083       .  S
C634        C635   1.409       .  A
C635        C636   1.399       .  A
C635        H640   1.083       .  S
C636        C637   1.402       .  A
C636        H641   1.082       .  S
C637        C638   1.408       .  A
C638        H642   1.083       .  S
C643        C644   1.406       .  A
C643        C648   1.400   1_455  A
C643       H1481   1.083       .  S
C644        C645   1.405       .  A
C645        C646   1.396   1_455  A
C645        H650   1.083       .  S
C646        C647   1.406       .  A
C646        H651   1.083       .  S
C647        C648   1.406       .  A
C648       H1484   1.083       .  S
H649       C1475   1.083       .  S
H652       C1480   1.083       .  S
C653        C658   1.400       .  A
C653       C1486   1.411       .  A
C653        H659   1.083       .  S
C654        C655   1.401       .  A
C654       C1485   1.411   1_554  A
C655        C656   1.399       .  A
C655        H660   1.084       .  S
C656       C1489   1.411   1_554  A
C656        H661   1.083       .  S
C657        C658   1.402       .  A
C657       C1488   1.411       .  A
C658        H662   1.084       .  S
C663        C668   1.390       .  A
C663       C1496   1.400       .  A
C663        H669   1.084       .  S
C664        C665   1.406       .  A
C664       C1495   1.400   1_554  A
C665        C666   1.391       .  A
C665        H670   1.084       .  S
C666       C1499   1.401   1_554  A
C666        H671   1.084       .  S
C667        C668   1.406       .  A
C667       C1498   1.401       .  A
C668        H672   1.084       .  S
C673        C674   1.407       .  A
C673        C678   1.405       .  A
C673        H679   1.083       .  S
C674        C675   1.408       .  A
C675        C676   1.404       .  A
C675        H680   1.083       .  S
C676        C677   1.406       .  A
C676        H681   1.083       .  S
C677        C678   1.408       .  A
C678        H682   1.083       .  S
C683        C684   1.411   1_556  A
C683       C1520   1.399       .  A
C683        H689   1.083       .  S
C684        C685   1.403       .  A
C685        C686   1.401       .  A
C685        H690   1.084       .  S
C686       C1519   1.411   1_554  A
C686        H691   1.083       .  S
C687        C688   1.401       .  A
C687       C1518   1.411       .  A
C688       C1515   1.399       .  A
C688        H692   1.084       .  S
C693        C694   1.405       .  A
C693        C698   1.391       .  A
C693        H699   1.084       .  S
C694       C1527   1.401       .  A
C695        C696   1.390       .  A
C695       C1526   1.401   1_554  A
C695        H700   1.084       .  S
C696        C697   1.405       .  A
C696        H701   1.084       .  S
C697       C1530   1.401   1_554  A
C698       C1529   1.401       .  A
C698        H702   1.084       .  S
C703        C704   1.409       .  A
C703        C708   1.406       .  A
C703        H709   1.083       .  S
C704        C705   1.407       .  A
C705        C706   1.405       .  A
C705        H710   1.083       .  S
C706        C707   1.408       .  A
C706        H711   1.083       .  S
C707        C708   1.408       .  A
C708        H712   1.083       .  S
C713        C714   1.406       .  A
C713        C718   1.396       .  A
C713        H719   1.083       .  S
C714        C715   1.406       .  A
C715        C716   1.400       .  A
C715        H720   1.083       .  S
C716        C717   1.406       .  A
C716        H721   1.083       .  S
C717        C718   1.405       .  A
C718        H722   1.083       .  S
C723        C724   1.411       .  A
C723        C728   1.399   1_565  A
C723        H729   1.083       .  S
C724        C725   1.402   1_565  A
C725        C726   1.400       .  A
C725        H730   1.084   1_545  S
C726        C727   1.411       .  A
C726        H731   1.083       .  S
C727        C728   1.401       .  A
C728        H732   1.084       .  S
C733        C734   1.401       .  A
C733        C738   1.391       .  A
C733        H739   1.084       .  S
C734        C735   1.405       .  A
C735        C736   1.390       .  A
C735        H740   1.084       .  S
C736        C737   1.401       .  A
C736        H741   1.084       .  S
C737        C738   1.405       .  A
C738        H742   1.084       .  S
C743        C744   1.408       .  A
C743        C748   1.405       .  A
C743        H749   1.083       .  S
C744        C745   1.407       .  A
C745        C746   1.405       .  A
C745        H750   1.083       .  S
C746        C747   1.408       .  A
C746        H751   1.083       .  S
C747        C748   1.407       .  A
C748        H752   1.083       .  S
C753        C754   1.408       .  A
C753        C758   1.399       .  A
C753        H759   1.083       .  S
C754        C755   1.403       .  A
C755        C756   1.400       .  A
C755        H760   1.082       .  S
C756        C757   1.409       .  A
C756        H761   1.083       .  S
C757        C758   1.404       .  A
C758        H762   1.082       .  S
C763        C764   1.410       .  A
C763        C768   1.401       .  A
C763        H769   1.083       .  S
C764        C765   1.403       .  A
C765        C766   1.398       .  A
C765        H770   1.082       .  S
C766        C767   1.408       .  A
C766        H771   1.083       .  S
C767        C768   1.403       .  A
C768        H772   1.082       .  S
C773        C774   1.411       .  A
C773        C778   1.398   1_565  A
C773        H779   1.083       .  S
C774        C775   1.403       .  A
C775        C776   1.402   1_565  A
C775        H780   1.083       .  S
C776        C777   1.411       .  A
C776        H781   1.083       .  S
C777        C778   1.400       .  A
C778        H782   1.083       .  S
C783        C784   1.408       .  A
C783        C788   1.399       .  A
C783        H789   1.083       .  S
C784        C785   1.403       .  A
C785        C786   1.400       .  A
C785        H790   1.083       .  S
C786        C787   1.409       .  A
C786        H791   1.083       .  S
C787        C788   1.404       .  A
C788        H792   1.083       .  S
C793        C794   1.410       .  A
C793        C798   1.401       .  A
C793        H799   1.083       .  S
C794        C795   1.404       .  A
C795        C796   1.399       .  A
C795        H800   1.083       .  S
C796        C797   1.408       .  A
C796        H801   1.083       .  S
C797        C798   1.403       .  A
C798        H802   1.082       .  S
C803        C804   1.406       .  A
C803        C808   1.400       .  A
C803        H809   1.083       .  S
C804        C805   1.405       .  A
C805        C806   1.396       .  A
C805        H810   1.083       .  S
C806        C807   1.405       .  A
C806        H811   1.083       .  S
C807        C808   1.406       .  A
C808        H812   1.083       .  S
C813        C814   1.400       .  A
C813        C818   1.391       .  A
C813        H819   1.084       .  S
C814        C815   1.407       .  A
C815        C816   1.390       .  A
C815        H820   1.084       .  S
C816        C817   1.400       .  A
C816        H821   1.084       .  S
C817        C818   1.407       .  A
C818        H822   1.084       .  S
C823        C824   1.407       .  A
C823        C828   1.405       .  A
C823        H829   1.083       .  S
C824        C825   1.409       .  A
C825        C826   1.405       .  A
C825        H830   1.083       .  S
C826        C827   1.408       .  A
C826        H831   1.083       .  S
C827        C828   1.408       .  A
C828        H832   1.083       .  S
O833       Cr851   1.985       .  S
O833        C841   1.261       .  A
O834       Cr851   2.037       .  S
O834        C835   1.273       .  A
C835        O836   1.256       .  A
C835       C1616   1.482       .  S
O836       Cr852   1.960       .  S
O837       Cr852   2.021       .  S
O837        C838   1.269       .  A
C838        O839   1.251       .  A
C838       C1646   1.463       .  S
O839       Cr853   1.943       .  S
O840       Cr853   2.024       .  S
O840        C841   1.270       .  A
C841       C1656   1.494       .  S
O842       Cr851   2.047       .  S
O842        C850   1.276       .  A
O843       Cr851   1.971       .  S
O843        C844   1.262       .  A
C844        O845   1.270       .  A
C844       C1636   1.481       .  S
O845       Cr852   2.018       .  S
O846       Cr852   1.966       .  S
O846        C847   1.257       .  A
C847        O848   1.271       .  A
C847       C1626   1.484       .  S
O848       Cr853   2.030       .  S
O849       Cr853   1.953       .  S
O849        C850   1.255       .  A
C850       C1606   1.487       .  S
Cr851       O854   1.765       .  S
Cr852       O854   1.765       .  S
Cr853       O854   1.757       .  S
O855       Cr873   2.042       .  S
O855        C863   1.275       .  A
O856       Cr873   1.971       .  S
O856        C857   1.262       .  A
C857        O858   1.270       .  A
C857       C1639   1.481       .  S
O858       Cr874   2.018       .  S
O859       Cr874   1.964       .  S
O859        C860   1.257       .  A
C860        O861   1.271       .  A
C860       C1596   1.483       .  S
O861       Cr875   2.031       .  S
O862       Cr875   1.955       .  S
O862        C863   1.256       .  A
C863       C1556   1.484       .  S
O864       Cr873   1.983       .  S
O864        C872   1.261       .  A
O865       Cr873   2.037       .  S
O865        C866   1.273       .  A
C866        O867   1.256       .  A
C866       C1586   1.483       .  S
O867       Cr874   1.960       .  S
O868       Cr874   2.019       .  S
O868        C869   1.268       .  A
C869        O870   1.251       .  A
C869       C1569   1.461       .  S
O870       Cr875   1.945       .  S
O871       Cr875   2.023       .  S
O871        C872   1.270       .  A
C872       C1579   1.493       .  S
Cr873       O876   1.764       .  S
Cr874       O876   1.764       .  S
Cr875       O876   1.758       .  S
O877       Cr895   1.986       .  S
O877        C885   1.261       .  A
O878       Cr895   2.038       .  S
O878        C879   1.273       .  A
C879        O880   1.255       .  A
C879       C1599   1.482       .  S
O880       Cr896   1.958       .  S
O881       Cr896   2.018       .  S
O881        C882   1.268       .  A
C882        O883   1.252       .  A
C882       C1529   1.462       .  S
O883       Cr897   1.946       .  S
O884       Cr897   2.025       .  S
O884        C885   1.271       .  A
C885       C1536   1.495       .  S
O886       Cr895   2.043       .  S
O886        C894   1.276       .  A
O887       Cr895   1.971       .  S
O887        C888   1.262       .  A
C888        O889   1.270       .  A
C888       C1546   1.482       .  S
O889       Cr896   2.019       .  S
O890        C891   1.258   1_554  A
C891        O892   1.271       .  A
C891       C1589   1.484       .  S
O893       Cr897   1.957       .  S
O893        C894   1.256       .  A
C894       C1516   1.487       .  S
Cr895       O898   1.766       .  S
Cr896       O898   1.765       .  S
Cr897       O898   1.759       .  S
O899       Cr917   2.042       .  S
O899        C907   1.275       .  A
O900       Cr917   1.971       .  S
O900        C901   1.262       .  A
C901        O902   1.270       .  A
C901       C1549   1.482       .  S
O902       Cr918   2.019       .  S
O903        C904   1.257   1_554  A
C904        O905   1.270       .  A
C904       C1619   1.483       .  S
O906       Cr919   1.955       .  S
O906        C907   1.255       .  A
C907       C1486   1.484       .  S
O908       Cr917   1.982       .  S
O908        C916   1.261       .  A
O909       Cr917   2.037       .  S
O909        C910   1.273       .  A
C910        O911   1.256       .  A
C910       C1629   1.483       .  S
O911       Cr918   1.961       .  S
O912       Cr918   2.020       .  S
O912        C913   1.268       .  A
C913        O914   1.251       .  A
C913       C1496   1.462       .  S
O914       Cr919   1.944       .  S
O915       Cr919   2.024       .  S
O915        C916   1.270       .  A
C916       C1506   1.493       .  S
Cr917       O920   1.765       .  S
Cr918       O920   1.764       .  S
Cr919       O920   1.759       .  S
O921       Cr939   1.986       .  S
O921        C929   1.261       .  A
O922       Cr939   2.033       .  S
O922        C923   1.272       .  A
C923        O924   1.256       .  A
C923       C1459   1.481       .  S
O924       Cr940   1.959       .  S
O925       Cr940   2.019       .  S
O925        C926   1.268       .  A
C926        O927   1.251       .  A
C926       C1499   1.462       .  S
O927       Cr941   1.944       .  S
O928       Cr941   2.021       .  S
O928        C929   1.269       .  A
C929       C1659   1.494       .  S
O930       Cr939   2.043       .  S
O930        C938   1.276       .  A
O931       Cr939   1.972       .  S
O931        C932   1.262       .  A
C932        O933   1.270       .  A
C932       C1476   1.482       .  S
O933       Cr940   2.016       .  S
O934        C935   1.257       .  A
C935        O936   1.269       .  A
C935       C1466   1.480       .  S
O937       Cr941   1.954       .  S
O937        C938   1.256       .  A
C938       C1446   1.486       .  S
Cr939       O942   1.765       .  S
Cr940       O942   1.765       .  S
Cr941       O942   1.760       .  S
O943       Cr961   2.042       .  S
O943        C951   1.276       .  A
O944       Cr961   1.970       .  S
O944        C945   1.262       .  A
C945        O946   1.270       .  A
C945       C1479   1.481       .  S
O946       Cr962   2.017       .  S
O947        C948   1.257       .  A
C948        O949   1.271       .  A
C948       C1436   1.483       .  S
O950       Cr963   1.960       .  S
O950        C951   1.257       .  A
C951       C1416   1.487       .  S
O952       Cr961   1.984       .  S
O952        C960   1.261       .  A
O953       Cr961   2.037       .  S
O953        C954   1.272       .  A
C954        O955   1.255       .  A
C954       C1426   1.481       .  S
O955       Cr962   1.956       .  S
O956       Cr962   2.018       .  S
O956        C957   1.268       .  A
C957        O958   1.251       .  A
C957       C1526   1.462       .  S
O958       Cr963   1.947       .  S
O959       Cr963   2.023       .  S
O959        C960   1.270       .  A
C960       C1576   1.493       .  S
Cr961       O964   1.765       .  S
Cr962       O964   1.765       .  S
Cr963       O964   1.759       .  S
O965       Cr983   1.986       .  S
O965        C973   1.261       .  A
O966       Cr983   2.038       .  S
O966        C967   1.273       .  A
C967        O968   1.255       .  A
C967       C1439   1.482       .  S
O968       Cr984   1.956       .  S
O969       Cr984   2.016       .  S
O969        C970   1.267       .  A
C970        O971   1.252       .  A
C970       C1566   1.461       .  S
O971       Cr985   1.948       .  S
O972       Cr985   2.023       .  S
O972        C973   1.270       .  A
C973       C1539   1.495       .  S
O974       Cr983   2.042       .  S
O974        C982   1.276       .  A
O975       Cr983   1.972       .  S
O975        C976   1.262       .  A
C976        O977   1.269       .  A
C976       C1406   1.482       .  S
O977       Cr984   2.015       .  S
O978       Cr984   1.965       .  S
O978        C979   1.258       .  A
C979        O980   1.270       .  A
C979       C1429   1.482       .  S
O980       Cr985   2.027       .  S
O981       Cr985   1.959       .  S
O981        C982   1.257       .  A
C982       C1396   1.487       .  S
Cr983       O986   1.766       .  S
Cr984       O986   1.766       .  S
Cr985       O986   1.760       .  S
O987      Cr1005   2.040       .  S
O987        C995   1.275       .  A
O988      Cr1005   1.968       .  S
O988        C989   1.261       .  A
C989        O990   1.271       .  A
C989       C1409   1.481       .  S
O990      Cr1006   2.020       .  S
O991      Cr1006   1.964       .  S
O991        C992   1.257       .  A
C992        O993   1.270       .  A
C992       C1456   1.482       .  S
O993      Cr1007   2.029       .  S
O994      Cr1007   1.958       .  S
O994        C995   1.256       .  A
C995       C1386   1.484       .  S
O996      Cr1005   1.982       .  S
O996       C1004   1.261       .  A
O997      Cr1005   2.033       .  S
O997        C998   1.272       .  A
C998        O999   1.255       .  A
C998       C1469   1.480       .  S
O999      Cr1006   1.958       .  S
O1000     Cr1006   2.021       .  S
O1000      C1001   1.269       .  A
C1001      O1002   1.251       .  A
C1001      C1649   1.463       .  S
O1002     Cr1007   1.943       .  S
O1003     Cr1007   2.024       .  S
O1003      C1004   1.270       .  A
C1004      C1509   1.492       .  S
Cr1005     O1008   1.764       .  S
Cr1006     O1008   1.765       .  S
Cr1007     O1008   1.757       .  S
O1009     Cr1027   1.986       .  S
O1009      C1017   1.262       .  A
O1010     Cr1027   2.036       .  S
O1010      C1011   1.273       .  A
C1011      O1012   1.256       .  A
C1011      C1356   1.483       .  S
O1012     Cr1028   1.959       .  S
O1013     Cr1028   2.020       .  S
O1013      C1014   1.268       .  A
C1014      O1015   1.251       .  A
C1014      C1336   1.463       .  S
O1015     Cr1029   1.946       .  S
O1016     Cr1029   2.022       .  S
O1016      C1017   1.270       .  A
C1017      C1346   1.493       .  S
O1018     Cr1027   2.041       .  S
O1018      C1026   1.275       .  A
O1019     Cr1027   1.972       .  S
O1019      C1020   1.262       .  A
C1020      O1021   1.270       .  A
C1020      C1376   1.483       .  S
O1021     Cr1028   2.018       .  S
O1022      C1023   1.257       .  A
C1023      O1024   1.270       .  A
C1023      C1366   1.483       .  S
O1025     Cr1029   1.959       .  S
O1025      C1026   1.257       .  A
C1026      C1519   1.485       .  S
Cr1027     O1030   1.765       .  S
Cr1028     O1030   1.765       .  S
Cr1029     O1030   1.760       .  S
O1031     Cr1049   2.042       .  S
O1031      C1039   1.276       .  A
O1032     Cr1049   1.972       .  S
O1032      C1033   1.262       .  A
C1033      O1034   1.270       .  A
C1033      C1379   1.484       .  S
O1034     Cr1050   2.019       .  S
O1035      C1036   1.257       .  A
C1036      O1037   1.270       .  A
C1036      C1306   1.484       .  S
O1038     Cr1051   1.956       .  S
O1038      C1039   1.256       .  A
C1039      C1489   1.485       .  S
O1040     Cr1049   1.985       .  S
O1040      C1048   1.261       .  A
O1041     Cr1049   2.035       .  S
O1041      C1042   1.272       .  A
C1042      O1043   1.255       .  A
C1042      C1296   1.482       .  S
O1043     Cr1050   1.958       .  S
O1044     Cr1050   2.019       .  S
O1044      C1045   1.268       .  A
C1045      O1046   1.252       .  A
C1045      C1316   1.463       .  S
O1046     Cr1051   1.945       .  S
O1047     Cr1051   2.024       .  S
O1047      C1048   1.270       .  A
C1048      C1326   1.494       .  S
Cr1049     O1052   1.766       .  S
Cr1050     O1052   1.765       .  S
Cr1051     O1052   1.760       .  S
O1053     Cr1071   1.982       .  S
O1053      C1061   1.260       .  A
O1054     Cr1071   2.036       .  S
O1054      C1055   1.272       .  A
C1055      O1056   1.256       .  A
C1055      C1309   1.481       .  S
O1056     Cr1072   1.959       .  S
O1057     Cr1072   2.018       .  S
O1057      C1058   1.267       .  A
C1058      O1059   1.251       .  A
C1058      C1286   1.462       .  S
O1059     Cr1073   1.946       .  S
O1060     Cr1073   2.024       .  S
O1060      C1061   1.270       .  A
C1061      C1276   1.493       .  S
O1062     Cr1071   2.040       .  S
O1062      C1070   1.275       .  A
O1063     Cr1071   1.972       .  S
O1063      C1064   1.262       .  A
C1064      O1065   1.270       .  A
C1064      C1266   1.484       .  S
O1065     Cr1072   2.019       .  S
O1066     Cr1072   1.965       .  S
O1066      C1067   1.258       .  A
C1067      O1068   1.271       .  A
C1067      C1299   1.483       .  S
O1068     Cr1073   2.030       .  S
O1069     Cr1073   1.959       .  S
O1069      C1070   1.256       .  A
C1070      C1609   1.484       .  S
Cr1071     O1074   1.765       .  S
Cr1072     O1074   1.765       .  S
Cr1073     O1074   1.760       .  S
O1075     Cr1093   2.041       .  S
O1075      C1083   1.275       .  A
O1076     Cr1093   1.971       .  S
O1076      C1077   1.262       .  A
C1077      O1078   1.271       .  A
C1077      C1269   1.484       .  S
O1078     Cr1094   2.021       .  S
O1079     Cr1094   1.965       .  S
O1079      C1080   1.257       .  A
C1080      O1081   1.270       .  A
C1080      C1359   1.483       .  S
O1081     Cr1095   2.029       .  S
O1082     Cr1095   1.957       .  S
O1082      C1083   1.256       .  A
C1083      C1559   1.484       .  S
O1084     Cr1093   1.985       .  S
O1084      C1092   1.262       .  A
O1085     Cr1093   2.037       .  S
O1085      C1086   1.272       .  A
C1086      O1087   1.255       .  A
C1086      C1369   1.481       .  S
O1087     Cr1094   1.958       .  S
O1088     Cr1094   2.021       .  S
O1088      C1089   1.269       .  A
C1089      O1090   1.252       .  A
C1089      C1256   1.465       .  S
O1090     Cr1095   1.945       .  S
O1091     Cr1095   2.024       .  S
O1091      C1092   1.270       .  A
C1092      C1246   1.495       .  S
Cr1093     O1096   1.766       .  S
Cr1094     O1096   1.764       .  S
Cr1095     O1096   1.760       .  S
O1097     Cr1115   1.983       .  S
O1097      C1105   1.261       .  A
O1098     Cr1115   2.036       .  S
O1098      C1099   1.272       .  A
C1099      O1100   1.256       .  A
C1099      C1226   1.483       .  S
O1100     Cr1116   1.962       .  S
O1101     Cr1116   2.021       .  S
O1101      C1102   1.269       .  A
C1102      O1103   1.252       .  A
C1102      C1259   1.465       .  S
O1103     Cr1117   1.945       .  S
O1104     Cr1117   2.024       .  S
O1104      C1105   1.270       .  A
C1105      C1349   1.493       .  S
O1106     Cr1115   2.042       .  S
O1106      C1114   1.275       .  A
O1107     Cr1115   1.968       .  S
O1107      C1108   1.261       .  A
C1108      O1109   1.270       .  A
C1108      C1236   1.480       .  S
O1109     Cr1116   2.018       .  S
O1110     Cr1116   1.966       .  S
O1110      C1111   1.258       .  A
C1111      O1112   1.270       .  A
C1111      C1216   1.484       .  S
O1112     Cr1117   2.030       .  S
O1113     Cr1117   1.958       .  S
O1113      C1114   1.256       .  A
C1114      C1399   1.485       .  S
Cr1115     O1118   1.765       .  S
Cr1116     O1118   1.765       .  S
Cr1117     O1118   1.758       .  S
O1119     Cr1137   2.045       .  S
O1119      C1127   1.276       .  A
O1120     Cr1137   1.970       .  S
O1120      C1121   1.262       .  A
C1121      O1122   1.269       .  A
C1121      C1239   1.480       .  S
O1122     Cr1138   2.015       .  S
O1123     Cr1138   1.967       .  S
O1123      C1124   1.258       .  A
C1124      O1125   1.270       .  A
C1124      C1196   1.483       .  S
O1125     Cr1139   2.028       .  S
O1126     Cr1139   1.956       .  S
O1126      C1127   1.256       .  A
C1127      C1389   1.487       .  S
O1128     Cr1137   1.984       .  S
O1128      C1136   1.261       .  A
O1129     Cr1137   2.037       .  S
O1129      C1130   1.273       .  A
C1130      O1131   1.256       .  A
C1130      C1206   1.484       .  S
O1131     Cr1138   1.961       .  S
O1132     Cr1138   2.017       .  S
O1132      C1133   1.268       .  A
C1133      O1134   1.251       .  A
C1133      C1289   1.461       .  S
O1134     Cr1139   1.945       .  S
O1135     Cr1139   2.023       .  S
O1135      C1136   1.270       .  A
C1136      C1329   1.493       .  S
Cr1137     O1140   1.765       .  S
Cr1138     O1140   1.766       .  S
Cr1139     O1140   1.759       .  S
O1141     Cr1159   1.980       .  S
O1141      C1149   1.260       .  A
O1142     Cr1159   2.035       .  S
O1142      C1143   1.272       .  A
C1143      O1144   1.256       .  A
C1143      C1199   1.482       .  S
O1144     Cr1160   1.960       .  S
O1145     Cr1160   2.019       .  S
O1145      C1146   1.268       .  A
C1146      O1147   1.251       .  A
C1146      C1319   1.462       .  S
O1147     Cr1161   1.944       .  S
O1148     Cr1161   2.024       .  S
O1148      C1149   1.270       .  A
C1149      C1279   1.492       .  S
O1150     Cr1159   2.040       .  S
O1150      C1158   1.275       .  A
O1151     Cr1159   1.968       .  S
O1151      C1152   1.262       .  A
C1152      O1153   1.270       .  A
C1152      C1186   1.481       .  S
O1153     Cr1160   2.019       .  S
O1154      C1155   1.258   1_554  A
C1155      O1156   1.270       .  A
C1155      C1209   1.485       .  S
O1157     Cr1161   1.958       .  S
O1157      C1158   1.256       .  A
C1158      C1449   1.483       .  S
Cr1159     O1162   1.765       .  S
Cr1160     O1162   1.765       .  S
Cr1161     O1162   1.759       .  S
O1163     Cr1181   2.044       .  S
O1163      C1171   1.276       .  A
O1164     Cr1181   1.969       .  S
O1164      C1165   1.261       .  A
C1165      O1166   1.270       .  A
C1165      C1189   1.481       .  S
O1166     Cr1182   2.018       .  S
O1167      C1168   1.258   1_554  A
C1168      O1169   1.270       .  A
C1168      C1229   1.484       .  S
O1170     Cr1183   1.958       .  S
O1170      C1171   1.256       .  A
C1171      C1419   1.487       .  S
O1172     Cr1181   1.984       .  S
O1172      C1180   1.261       .  A
O1173     Cr1181   2.036       .  S
O1173      C1174   1.273       .  A
C1174      O1175   1.256       .  A
C1174      C1219   1.482       .  S
O1175     Cr1182   1.961       .  S
O1176     Cr1182   2.017       .  S
O1176      C1177   1.268       .  A
C1177      O1178   1.252       .  A
C1177      C1339   1.462       .  S
O1178     Cr1183   1.946       .  S
O1179     Cr1183   2.025       .  S
O1179      C1180   1.271       .  A
C1180      C1249   1.494       .  S
Cr1181     O1184   1.765       .  S
Cr1182     O1184   1.765       .  S
Cr1183     O1184   1.759       .  S
C1185      C1186   1.405       .  A
C1185      C1190   1.396   1_455  A
C1185      H1191   1.083       .  S
C1186      C1187   1.406       .  A
C1187      C1188   1.399   1_455  A
C1187      H1192   1.083       .  S
C1188      C1189   1.406       .  A
C1188      H1193   1.083       .  S
C1189      C1190   1.406       .  A
C1190      H1194   1.083       .  S
C1195      C1196   1.404       .  A
C1195      C1200   1.399       .  A
C1195      H1201   1.083       .  S
C1196      C1197   1.409       .  A
C1197      C1198   1.400       .  A
C1197      H1202   1.083       .  S
C1198      C1199   1.403       .  A
C1198      H1203   1.083       .  S
C1199      C1200   1.408       .  A
C1200      H1204   1.083       .  S
C1205      C1206   1.409       .  A
C1205      C1210   1.400       .  A
C1205      H1211   1.083       .  S
C1206      C1207   1.403       .  A
C1207      C1208   1.401       .  A
C1207      H1212   1.082       .  S
C1208      C1209   1.409       .  A
C1208      H1213   1.083       .  S
C1209      C1210   1.404       .  A
C1210      H1214   1.083       .  S
C1215      C1216   1.409       .  A
C1215      C1220   1.400       .  A
C1215      H1221   1.083       .  S
C1216      C1217   1.405       .  A
C1217      C1218   1.400       .  A
C1217      H1222   1.083       .  S
C1218      C1219   1.408       .  A
C1218      H1223   1.083       .  S
C1219      C1220   1.402       .  A
C1220      H1224   1.082       .  S
C1225      C1226   1.408       .  A
C1225      C1230   1.399       .  A
C1225      H1231   1.083       .  S
C1226      C1227   1.403       .  A
C1227      C1228   1.401       .  A
C1227      H1232   1.083       .  S
C1228      C1229   1.409       .  A
C1228      H1233   1.083       .  S
C1229      C1230   1.404       .  A
C1230      H1234   1.083       .  S
C1235      C1236   1.405       .  A
C1235      C1240   1.399   1_655  A
C1235      H1241   1.083       .  S
C1236      C1237   1.405       .  A
C1237      C1238   1.395   1_655  A
C1237      H1242   1.083       .  S
C1238      C1239   1.405       .  A
C1238      H1243   1.083       .  S
C1239      C1240   1.406       .  A
C1240      H1244   1.083       .  S
C1245      C1246   1.408       .  A
C1245      C1250   1.406       .  A
C1245      H1251   1.083       .  S
C1246      C1247   1.408       .  A
C1247      C1248   1.405       .  A
C1247      H1252   1.083       .  S
C1248      C1249   1.407       .  A
C1248      H1253   1.083       .  S
C1249      C1250   1.409       .  A
C1250      H1254   1.083       .  S
C1255      C1256   1.407       .  A
C1255      C1260   1.392       .  A
C1255      H1261   1.084       .  S
C1256      C1257   1.400       .  A
C1257      C1258   1.391       .  A
C1257      H1262   1.083       .  S
C1258      C1259   1.406       .  A
C1258      H1263   1.083       .  S
C1259      C1260   1.401       .  A
C1260      H1264   1.084       .  S
C1265      C1266   1.406       .  A
C1265      C1270   1.401       .  A
C1265      H1271   1.083       .  S
C1266      C1267   1.406       .  A
C1267      C1268   1.397       .  A
C1267      H1272   1.083       .  S
C1268      C1269   1.406       .  A
C1268      H1273   1.083       .  S
C1269      C1270   1.406       .  A
C1270      H1274   1.083       .  S
C1275      C1276   1.409       .  A
C1275      C1280   1.405       .  A
C1275      H1281   1.083       .  S
C1276      C1277   1.406       .  A
C1277      C1278   1.404       .  A
C1277      H1282   1.083       .  S
C1278      C1279   1.408       .  A
C1278      H1283   1.083       .  S
C1279      C1280   1.406       .  A
C1280      H1284   1.083       .  S
C1285      C1286   1.401       .  A
C1285      C1290   1.391       .  A
C1285      H1291   1.084       .  S
C1286      C1287   1.405       .  A
C1287      C1288   1.390       .  A
C1287      H1292   1.084       .  S
C1288      C1289   1.401       .  A
C1288      H1293   1.084       .  S
C1289      C1290   1.405       .  A
C1290      H1294   1.084       .  S
C1295      C1296   1.402       .  A
C1295      C1300   1.400       .  A
C1295      H1301   1.083       .  S
C1296      C1297   1.408       .  A
C1297      C1298   1.399       .  A
C1297      H1302   1.083       .  S
C1298      C1299   1.404       .  A
C1298      H1303   1.083       .  S
C1299      C1300   1.409       .  A
C1300      H1304   1.083       .  S
C1305      C1306   1.404       .  A
C1305      C1310   1.398       .  A
C1305      H1311   1.083       .  S
C1306      C1307   1.410       .  A
C1307      C1308   1.401       .  A
C1307      H1312   1.083       .  S
C1308      C1309   1.403       .  A
C1308      H1313   1.082       .  S
C1309      C1310   1.408       .  A
C1310      H1314   1.083       .  S
C1315      C1316   1.406       .  A
C1315      C1320   1.391       .  A
C1315      H1321   1.084       .  S
C1317      C1318   1.390       .  A
C1317      H1322   1.084       .  S
C1318      C1319   1.406       .  A
C1318      H1323   1.084       .  S
C1320      H1324   1.084       .  S
C1325      C1326   1.407       .  A
C1325      C1330   1.405       .  A
C1325      H1331   1.083       .  S
C1326      C1327   1.409       .  A
C1327      C1328   1.405       .  A
C1327      H1332   1.083       .  S
C1328      C1329   1.407       .  A
C1328      H1333   1.083       .  S
C1329      C1330   1.408       .  A
C1330      H1334   1.083       .  S
C1335      C1340   1.391       .  A
C1335      H1341   1.084       .  S
C1336      C1337   1.406       .  A
C1337      C1338   1.390       .  A
C1337      H1342   1.084       .  S
C1338      H1343   1.084       .  S
C1339      C1340   1.406       .  A
C1340      H1344   1.084       .  S
C1345      C1346   1.407       .  A
C1345      C1350   1.404       .  A
C1345      H1351   1.083       .  S
C1346      C1347   1.408       .  A
C1347      C1348   1.405       .  A
C1347      H1352   1.083       .  S
C1348      C1349   1.407       .  A
C1348      H1353   1.083       .  S
C1349      C1350   1.408       .  A
C1350      H1354   1.083       .  S
C1355      C1356   1.403       .  A
C1355      C1360   1.400       .  A
C1355      H1361   1.083       .  S
C1356      C1357   1.409       .  A
C1357      C1358   1.399       .  A
C1357      H1362   1.083       .  S
C1358      C1359   1.403       .  A
C1358      H1363   1.083       .  S
C1359      C1360   1.409       .  A
C1360      H1364   1.083       .  S
C1365      C1366   1.403       .  A
C1365      C1370   1.398       .  A
C1365      H1371   1.083       .  S
C1366      C1367   1.410       .  A
C1367      C1368   1.401       .  A
C1367      H1372   1.083       .  S
C1368      C1369   1.403       .  A
C1368      H1373   1.083       .  S
C1369      C1370   1.408       .  A
C1370      H1374   1.083       .  S
C1375      C1376   1.406       .  A
C1375      C1380   1.401       .  A
C1376      C1377   1.406       .  A
C1377      C1378   1.397       .  A
C1377      H1382   1.083       .  S
C1378      C1379   1.406       .  A
C1378      H1383   1.083       .  S
C1379      C1380   1.406       .  A
C1385      C1386   1.401       .  A
C1385      C1390   1.399       .  A
C1385      H1391   1.084       .  S
C1386      C1387   1.411       .  A
C1387      C1388   1.401       .  A
C1387      H1392   1.083       .  S
C1388      C1389   1.402       .  A
C1388      H1393   1.084       .  S
C1389      C1390   1.411       .  A
C1390      H1394   1.083       .  S
C1395      C1396   1.402       .  A
C1395      C1400   1.400       .  A
C1395      H1401   1.084       .  S
C1396      C1397   1.412       .  A
C1397      C1398   1.401       .  A
C1397      H1402   1.083       .  S
C1398      C1399   1.402       .  A
C1398      H1403   1.084       .  S
C1399      C1400   1.410       .  A
C1400      H1404   1.083       .  S
C1405      C1406   1.406       .  A
C1405      C1410   1.400   1_655  A
C1405      H1411   1.083       .  S
C1406      C1407   1.405       .  A
C1407      C1408   1.396   1_655  A
C1407      H1412   1.083       .  S
C1408      C1409   1.406       .  A
C1408      H1413   1.083       .  S
C1409      C1410   1.405       .  A
C1410      H1414   1.083       .  S
C1415      C1416   1.402       .  A
C1415      C1420   1.400   1_565  A
C1415      H1421   1.084       .  S
C1417      C1418   1.402   1_565  A
C1417      H1422   1.083       .  S
C1418      C1419   1.402       .  A
C1418      H1423   1.084       .  S
C1420      H1424   1.083       .  S
C1425      C1426   1.408       .  A
C1425      C1430   1.397       .  A
C1425      H1431   1.083       .  S
C1426      C1427   1.403       .  A
C1427      C1428   1.401       .  A
C1427      H1432   1.083       .  S
C1428      C1429   1.409       .  A
C1428      H1433   1.083       .  S
C1429      C1430   1.403       .  A
C1430      H1434   1.083       .  S
C1435      C1436   1.403       .  A
C1435      C1440   1.398       .  A
C1435      H1441   1.083       .  S
C1436      C1437   1.410       .  A
C1437      C1438   1.401       .  A
C1437      H1442   1.083       .  S
C1438      C1439   1.403       .  A
C1438      H1443   1.083       .  S
C1439      C1440   1.408       .  A
C1440      H1444   1.083       .  S
C1445      C1450   1.398   1_565  A
C1445      H1451   1.083       .  S
C1446      C1447   1.402       .  A
C1447      H1452   1.084       .  S
C1448      C1449   1.411       .  A
C1449      C1450   1.401       .  A
C1450      H1454   1.084       .  S
C1455      C1456   1.403       .  A
C1455      C1460   1.398       .  A
C1455      H1461   1.083       .  S
C1456      C1457   1.409       .  A
C1457      C1458   1.400       .  A
C1457      H1462   1.083       .  S
C1458      C1459   1.403       .  A
C1458      H1463   1.083       .  S
C1459      C1460   1.408       .  A
C1460      H1464   1.083       .  S
C1465      C1466   1.403       .  A
C1465      C1470   1.398       .  A
C1465      H1471   1.083       .  S
C1466      C1467   1.409       .  A
C1467      C1468   1.399       .  A
C1467      H1472   1.083       .  S
C1468      C1469   1.402       .  A
C1468      H1473   1.082       .  S
C1469      C1470   1.408       .  A
C1470      H1474   1.083       .  S
C1475      C1476   1.406       .  A
C1475      C1480   1.400   1_455  A
C1476      C1477   1.405       .  A
C1477      C1478   1.396   1_455  A
C1477      H1482   1.083       .  S
C1478      C1479   1.406       .  A
C1478      H1483   1.083       .  S
C1479      C1480   1.406       .  A
C1485      C1490   1.400       .  A
C1485      H1491   1.083       .  S
C1486      C1487   1.401       .  A
C1487      C1488   1.399       .  A
C1487      H1492   1.084       .  S
C1488      H1493   1.083       .  S
C1489      C1490   1.402       .  A
C1490      H1494   1.084       .  S
C1495      C1500   1.390       .  A
C1495      H1501   1.084       .  S
C1496      C1497   1.406       .  A
C1497      C1498   1.391       .  A
C1497      H1502   1.084       .  S
C1498      H1503   1.084       .  S
C1499      C1500   1.406       .  A
C1500      H1504   1.084       .  S
C1505      C1506   1.407       .  A
C1505      C1510   1.405       .  A
C1505      H1511   1.083       .  S
C1506      C1507   1.408       .  A
C1507      C1508   1.404       .  A
C1507      H1512   1.083       .  S
C1508      C1509   1.406       .  A
C1508      H1513   1.083       .  S
C1509      C1510   1.408       .  A
C1510      H1514   1.083       .  S
C1515      C1516   1.411       .  A
C1515      H1521   1.083       .  S
C1516      C1517   1.403       .  A
C1517      C1518   1.401       .  A
C1517      H1522   1.084       .  S
C1518      H1523   1.083       .  S
C1519      C1520   1.401       .  A
C1520      H1524   1.084       .  S
C1525      C1526   1.405       .  A
C1525      C1530   1.391       .  A
C1525      H1531   1.084       .  S
C1527      C1528   1.390       .  A
C1527      H1532   1.084       .  S
C1528      C1529   1.405       .  A
C1528      H1533   1.084       .  S
C1530      H1534   1.084       .  S
C1535      C1536   1.409       .  A
C1535      C1540   1.406       .  A
C1535      H1541   1.083       .  S
C1536      C1537   1.407       .  A
C1537      C1538   1.405       .  A
C1537      H1542   1.083       .  S
C1538      C1539   1.408       .  A
C1538      H1543   1.083       .  S
C1539      C1540   1.408       .  A
C1540      H1544   1.083       .  S
C1545      C1546   1.406       .  A
C1545      C1550   1.396       .  A
C1545      H1551   1.083       .  S
C1546      C1547   1.406       .  A
C1547      C1548   1.400       .  A
C1547      H1552   1.083       .  S
C1548      C1549   1.406       .  A
C1548      H1553   1.083       .  S
C1549      C1550   1.405       .  A
C1550      H1554   1.083       .  S
C1555      C1556   1.411       .  A
C1555      C1560   1.399   1_565  A
C1555      H1561   1.083       .  S
C1556      C1557   1.402   1_565  A
C1557      C1558   1.400       .  A
C1557      H1562   1.084   1_545  S
C1558      C1559   1.411       .  A
C1558      H1563   1.083       .  S
C1559      C1560   1.401       .  A
C1560      H1564   1.084       .  S
C1565      C1566   1.401       .  A
C1565      C1570   1.391       .  A
C1565      H1571   1.084       .  S
C1566      C1567   1.405       .  A
C1567      C1568   1.390       .  A
C1567      H1572   1.084       .  S
C1568      C1569   1.401       .  A
C1568      H1573   1.084       .  S
C1569      C1570   1.405       .  A
C1570      H1574   1.084       .  S
C1575      C1576   1.408       .  A
C1575      C1580   1.405       .  A
C1575      H1581   1.083       .  S
C1576      C1577   1.407       .  A
C1577      C1578   1.405       .  A
C1577      H1582   1.083       .  S
C1578      C1579   1.408       .  A
C1578      H1583   1.083       .  S
C1579      C1580   1.407       .  A
C1580      H1584   1.083       .  S
C1585      C1586   1.408       .  A
C1585      C1590   1.399       .  A
C1585      H1591   1.083       .  S
C1586      C1587   1.403       .  A
C1587      C1588   1.400       .  A
C1587      H1592   1.082       .  S
C1588      C1589   1.409       .  A
C1588      H1593   1.083       .  S
C1589      C1590   1.404       .  A
C1590      H1594   1.082       .  S
C1595      C1596   1.410       .  A
C1595      C1600   1.401       .  A
C1595      H1601   1.083       .  S
C1596      C1597   1.403       .  A
C1597      C1598   1.398       .  A
C1597      H1602   1.082       .  S
C1598      C1599   1.408       .  A
C1598      H1603   1.083       .  S
C1599      C1600   1.403       .  A
C1600      H1604   1.082       .  S
C1605      C1606   1.411       .  A
C1605      C1610   1.398   1_565  A
C1605      H1611   1.083       .  S
C1606      C1607   1.403       .  A
C1607      C1608   1.402   1_565  A
C1607      H1612   1.083       .  S
C1608      C1609   1.411       .  A
C1608      H1613   1.083       .  S
C1609      C1610   1.400       .  A
C1610      H1614   1.083       .  S
C1615      C1616   1.408       .  A
C1615      C1620   1.399       .  A
C1615      H1621   1.083       .  S
C1616      C1617   1.403       .  A
C1617      C1618   1.400       .  A
C1617      H1622   1.083       .  S
C1618      C1619   1.409       .  A
C1618      H1623   1.083       .  S
C1619      C1620   1.404       .  A
C1620      H1624   1.083       .  S
C1625      C1626   1.410       .  A
C1625      C1630   1.401       .  A
C1625      H1631   1.083       .  S
C1626      C1627   1.404       .  A
C1627      C1628   1.399       .  A
C1627      H1632   1.083       .  S
C1628      C1629   1.408       .  A
C1628      H1633   1.083       .  S
C1629      C1630   1.403       .  A
C1630      H1634   1.082       .  S
C1635      C1636   1.406       .  A
C1635      C1640   1.400       .  A
C1635      H1641   1.083       .  S
C1636      C1637   1.405       .  A
C1637      C1638   1.396       .  A
C1637      H1642   1.083       .  S
C1638      C1639   1.405       .  A
C1638      H1643   1.083       .  S
C1639      C1640   1.406       .  A
C1640      H1644   1.083       .  S
C1645      C1646   1.400       .  A
C1645      C1650   1.391       .  A
C1645      H1651   1.084       .  S
C1646      C1647   1.407       .  A
C1647      C1648   1.390       .  A
C1647      H1652   1.084       .  S
C1648      C1649   1.400       .  A
C1648      H1653   1.084       .  S
C1649      C1650   1.407       .  A
C1650      H1654   1.084       .  S
C1655      C1656   1.407       .  A
C1655      C1660   1.405       .  A
C1655      H1661   1.083       .  S
C1656      C1657   1.409       .  A
C1657      C1658   1.405       .  A
C1657      H1662   1.083       .  S
C1658      C1659   1.408       .  A
C1658      H1663   1.083       .  S
C1659      C1660   1.408       .  A
C1660      H1664   1.083       .  S
