geometry optimzed in LAMMPS
_audit_creation_date              2020-12-01 
_audit_creation_method            'lammps2cif' 
_symmetry_space_group_name_H-M    'P1' 
_symmetry_Int_Tables_number       1 
_symmetry_cell_setting            triclinic 
loop_ 
_symmetry_equiv_pos_as_xyz 
  x,y,z 
_cell_length_a                    40.38231879 
_cell_length_b                    102.26999918628835 
_cell_length_c                    56.98435126490229 
_cell_angle_alpha                 89.61460632577283 
_cell_angle_beta                  90.06001909158725 
_cell_angle_gamma                 89.85629458197268 
loop_ 
_atom_site_label 
_atom_site_type_symbol 
_atom_site_fract_x 
_atom_site_fract_y 
_atom_site_fract_z 
_atom_site_charge 
O1          O  0.07638002  0.92796012  0.44203258    -0.70100
O2          O  0.04844688  0.92373011  0.50568213    -0.70300
O3          O  0.03325098  0.94035958  0.47050444    -0.70200
O4          O  0.09037976  0.91141463  0.47718448    -0.70200
O5          O  0.12897480  0.92404910  0.49077138    -0.70100
O6          O  0.07300045  0.95352266  0.47993490    -0.70100
O7          O  0.08593838  0.93765429  0.51638486    -0.70100
O8          O  0.11713434  0.93998997  0.45387887    -0.70300
V9          V  0.06281012  0.92616542  0.47398266     1.35200
V10         V  0.10054752  0.93859111  0.48490363     1.35200
C11         C  0.10246087  0.93431501  0.43722905     0.79200
C12         C  0.06273423  0.92998532  0.52192055     0.79200
C13         C  0.04294086  0.95187144  0.47435366     0.79100
C14         C  0.11871371  0.91266667  0.48615009     0.79100
O15         O  0.24935054  0.80671753  0.49527100    -0.70100
O16         O  0.27815365  0.80949050  0.55890522    -0.70300
O17         O  0.28351027  0.79139263  0.52524360    -0.70200
O18         O  0.24513626  0.82478362  0.52867067    -0.70200
O19         O  0.19754550  0.81627565  0.53735714    -0.70100
O20         O  0.23925242  0.78267731  0.54021111    -0.70100
O21         O  0.23020161  0.80241046  0.57025395    -0.70100
O22         O  0.20550957  0.79645428  0.50728672    -0.70300
V23         V  0.26320388  0.80790109  0.52724379     1.35200
V24         V  0.21895053  0.79958717  0.53855716     1.35200
C25         C  0.22225926  0.80108972  0.49049559     0.79200
C26         C  0.25850343  0.80669775  0.57552510     0.79200
C27         C  0.26867928  0.78140128  0.53283165     0.79100
C28         C  0.21475946  0.82632888  0.53275664     0.79100
O29         O  0.23938438  0.93023203  0.27276870    -0.70100
O30         O  0.27229067  0.92955515  0.20949671    -0.70300
O31         O  0.27303328  0.94703725  0.24457827    -0.70200
O32         O  0.24028545  0.91276022  0.23805819    -0.70200
O33         O  0.19188928  0.92035552  0.22863768    -0.70100
O34         O  0.22826194  0.95485298  0.22859024    -0.70100
O35         O  0.22360386  0.93563956  0.19754557    -0.70100
O36         O  0.19487230  0.93969366  0.25976911    -0.70300
V37         V  0.25545296  0.93006218  0.24103216     1.35200
V38         V  0.21053776  0.93751765  0.22892947     1.35200
C39         C  0.21079627  0.93492308  0.27683574     0.79200
C40         C  0.25289325  0.93243172  0.19264614     0.79200
C41         C  0.25728207  0.95670913  0.23640702     0.79100
C42         C  0.21033254  0.91060813  0.23322383     0.79100
O43         O  0.08323200  0.80853063  0.32871719    -0.70100
O44         O  0.04695874  0.81139837  0.26682993    -0.70300
O45         O  0.03791689  0.79511732  0.30345835    -0.70200
O46         O  0.09095852  0.82481460  0.29195823    -0.70200
O47         O  0.12925132  0.81255702  0.27688253    -0.70100
O48         O  0.07769668  0.78245820  0.29187421    -0.70100
O49         O  0.08483190  0.79802971  0.25448629    -0.70100
O50         O  0.12349560  0.79688142  0.31474120    -0.70300
V51         V  0.06549512  0.80969283  0.29761957     1.35200
V52         V  0.10310013  0.79769240  0.28490995     1.35200
C53         C  0.11043826  0.80256547  0.33201632     0.79200
C54         C  0.06008191  0.80516982  0.25005154     0.79200
C55         C  0.04811330  0.78373428  0.29894912     0.79100
C56         C  0.11830085  0.82387588  0.28140394     0.79100
O57         O  0.23445060  0.44001976  0.75804031    -0.70100
O58         O  0.26206074  0.43434939  0.69464128    -0.70300
O59         O  0.27149060  0.45326678  0.72656326    -0.70200
O60         O  0.22644367  0.42114710  0.72642424    -0.70200
O61         O  0.18208755  0.43058739  0.71277497    -0.70100
O62         O  0.22742947  0.46339333  0.71413145    -0.70100
O63         O  0.21816082  0.44459371  0.68236738    -0.70100
O64         O  0.18989484  0.44952067  0.74522357    -0.70300
V65         V  0.24775708  0.43744113  0.72618792     1.35200
V66         V  0.20519114  0.44687626  0.71398186     1.35200
C67         C  0.20683684  0.44540344  0.76246719     0.79200
C68         C  0.24447085  0.43846194  0.67764818     0.79200
C69         C  0.25771195  0.46374000  0.72000884     0.79100
C70         C  0.19709679  0.42026240  0.71918757     0.79100
O71         O  0.07385722  0.31066474  0.75684876    -0.70100
O72         O  0.04833273  0.31155697  0.69175600    -0.70300
O73         O  0.03957563  0.29464348  0.72799346    -0.70200
O74         O  0.08066916  0.32741501  0.72082457    -0.70200
O75         O  0.12789501  0.31811149  0.71382130    -0.70100
O76         O  0.08415779  0.28488969  0.71590011    -0.70100
O77         O  0.09605581  0.30318708  0.68292831    -0.70100
O78         O  0.11775950  0.29974846  0.74709716    -0.70300
V79         V  0.06140204  0.31083338  0.72422844     1.35200
V80         V  0.10556785  0.30161150  0.71520518     1.35200
C81         C  0.10074315  0.30511078  0.76294025     0.79200
C82         C  0.06897783  0.30806551  0.67615003     0.79200
C83         C  0.05413706  0.28420629  0.72237512     0.79100
C84         C  0.11101000  0.32850325  0.71614511     0.79100
O85         O  0.09149877  0.43965121  0.93515309    -0.70100
O86         O  0.06755833  0.43577419  0.99975538    -0.70300
O87         O  0.05224353  0.45281931  0.96550213    -0.70200
O88         O  0.10539470  0.42260069  0.96977351    -0.70200
O89         O  0.14843099  0.43438219  0.97838288    -0.70100
O90         O  0.09324659  0.46485958  0.97685984    -0.70100
O91         O  0.11056675  0.44712840  0.00965640    -0.70100
O92         O  0.13219985  0.45214637  0.94538233    -0.70300
V93         V  0.07998132  0.43799375  0.96765444     1.35200
V94         V  0.12030917  0.44944852  0.97730537     1.35200
C95         C  0.11659743  0.44635269  0.92925970     0.79200
C96         C  0.08548818  0.44058129  0.01579446     0.79200
C97         C  0.06284969  0.46389705  0.97150442     0.79100
C98         C  0.13567182  0.42326615  0.97487257     0.79100
O99         O  0.24639432  0.31150811  0.92389023    -0.70100
O100        O  0.28301881  0.31352910  0.98634291    -0.70300
O101        O  0.28384549  0.29550454  0.95186925    -0.70200
O102        O  0.24815664  0.32933346  0.95808366    -0.70200
O103        O  0.20164959  0.32144362  0.97077106    -0.70100
O104        O  0.24021827  0.28703229  0.96802533    -0.70100
O105        O  0.23652924  0.30609484  0.99977695    -0.70100
O106        O  0.20270050  0.30236526  0.93864518    -0.70300
V107        V  0.26452212  0.31223913  0.95520575     1.35200
V108        V  0.22113930  0.30432219  0.96888739     1.35200
C109        C  0.21730502  0.30704007  0.92093818     0.79200
C110        C  0.26505116  0.31046071  0.00386189     0.79200
C111        C  0.26942332  0.28556054  0.96008104     0.79100
C112        C  0.21934930  0.33131550  0.96567243     0.79100
O113        O  0.20358071  0.17962755  0.51073089    -0.70100
O114        O  0.17330963  0.17714074  0.44658461    -0.70300
O115        O  0.20910144  0.16221747  0.47601039    -0.70200
O116        O  0.16576368  0.19447826  0.48154095    -0.70200
O117        O  0.20913423  0.20464162  0.46850908    -0.70100
O118        O  0.25432885  0.17186773  0.46489981    -0.70100
O119        O  0.21866004  0.18658864  0.43547690    -0.70100
O120        O  0.24668357  0.19016943  0.49826377    -0.70300
V121        V  0.18875251  0.17859311  0.47856793     1.35200
V122        V  0.23134785  0.18815069  0.46713773     1.35200
C123        C  0.23086782  0.18528114  0.51526189     0.79200
C124        C  0.19167566  0.18125502  0.42997133     0.79200
C125        C  0.23869194  0.16140907  0.46933617     0.79100
C126        C  0.17916896  0.20500802  0.47509988     0.79100
O127        O  0.35922924  0.05308891  0.50761637    -0.70100
O128        O  0.39568846  0.05413266  0.44546105    -0.70300
O129        O  0.35845985  0.06984787  0.47150899    -0.70200
O130        O  0.39812250  0.03709894  0.48193401    -0.70200
O131        O  0.35485825  0.02733920  0.46772247    -0.70100
O132        O  0.31389297  0.06067150  0.45835909    -0.70100
O133        O  0.35130675  0.04469107  0.43245016    -0.70100
O134        O  0.31586144  0.04333148  0.49382732    -0.70300
V135        V  0.37707632  0.05328524  0.47642473     1.35200
V136        V  0.33482933  0.04413431  0.46346071     1.35200
C137        C  0.33051511  0.04844273  0.51107454     0.79200
C138        C  0.37893567  0.04992701  0.42822462     0.79200
C139        C  0.32982918  0.07099783  0.46302535     0.79100
C140        C  0.38398334  0.02667121  0.47596504     0.79100
O141        O  0.19248126  0.05540092  0.67516656    -0.70100
O142        O  0.16804194  0.05958704  0.73952247    -0.70300
O143        O  0.20541981  0.07275834  0.70841908    -0.70200
O144        O  0.15367770  0.04229999  0.70604723    -0.70200
O145        O  0.19528864  0.03047419  0.71753811    -0.70100
O146        O  0.24864572  0.06140399  0.71876961    -0.70100
O147        O  0.21124177  0.04829323  0.74978629    -0.70100
O148        O  0.23412303  0.04340437  0.68618185    -0.70300
V149        V  0.18070249  0.05724077  0.70747200     1.35200
V150        V  0.22151891  0.04607840  0.71778588     1.35200
C151        C  0.21829491  0.04899451  0.66981801     0.79200
C152        C  0.18584788  0.05466907  0.75568955     0.79200
C153        C  0.23566205  0.07237809  0.71374222     0.79100
C154        C  0.16480088  0.03128169  0.71222724     0.79100
O155        O  0.37535662  0.18017723  0.67757214    -0.70100
O156        O  0.40512336  0.17655897  0.74160414    -0.70300
O157        O  0.36865167  0.16246016  0.71197619    -0.70200
O158        O  0.41415110  0.19432981  0.70698347    -0.70200
O159        O  0.37190478  0.20487743  0.72071014    -0.70100
O160        O  0.32351961  0.17243928  0.72209059    -0.70100
O161        O  0.35968997  0.18597343  0.75282883    -0.70100
O162        O  0.33350126  0.19146266  0.68997918    -0.70300
V163        V  0.39004004  0.17865047  0.70969260     1.35200
V164        V  0.34802041  0.18855688  0.72111022     1.35200
C165        C  0.34850901  0.18624590  0.67304727     0.79200
C166        C  0.38623192  0.18017662  0.75819522     0.79200
C167        C  0.33870347  0.16180122  0.71784071     0.79100
C168        C  0.40188076  0.20498073  0.71384136     0.79100
O169        O  0.37554747  0.56465531  0.01530236    -0.70100
O170        O  0.40833102  0.56791892  0.95228506    -0.70300
O171        O  0.37000171  0.58229781  0.98054481    -0.70200
O172        O  0.41540381  0.55030027  0.98745982    -0.70200
O173        O  0.37470092  0.54010992  0.97073899    -0.70100
O174        O  0.32474821  0.57200682  0.97170682    -0.70100
O175        O  0.36220910  0.55957152  0.93991104    -0.70100
O176        O  0.33573574  0.55252529  0.00230192    -0.70300
V177        V  0.39160200  0.56606794  0.98368339     1.35200
V178        V  0.35017563  0.55618633  0.97137857     1.35200
C179        C  0.34956692  0.55804194  0.01945287     0.79200
C180        C  0.38972210  0.56479449  0.93524343     0.79200
C181        C  0.33948337  0.58266855  0.97597393     0.79100
C182        C  0.40363535  0.53982984  0.97947251     0.79100
O183        O  0.20103002  0.68115778  0.07092453    -0.70100
O184        O  0.16924710  0.67840484  0.00757695    -0.70300
O185        O  0.21388638  0.66583485  0.03413689    -0.70200
O186        O  0.15446778  0.69384466  0.04459670    -0.70200
O187        O  0.19228145  0.70776540  0.03447253    -0.70100
O188        O  0.25062412  0.67941830  0.02056984    -0.70100
O189        O  0.20529679  0.69292286  0.99691091    -0.70100
O190        O  0.23921424  0.69439162  0.05851627    -0.70300
V191        V  0.18524114  0.68013138  0.03918819     1.35200
V192        V  0.22111000  0.69338897  0.02800257     1.35200
C193        C  0.22658681  0.68795197  0.07520247     0.79200
C194        C  0.18278340  0.68503093  0.99126832     0.79200
C195        C  0.24155504  0.66776959  0.02455141     0.79100
C196        C  0.16280179  0.70560036  0.04104845     0.79100
O197        O  0.21358722  0.56200858  0.18432254    -0.70100
O198        O  0.18294918  0.56452041  0.24772213    -0.70300
O199        O  0.22585493  0.57754149  0.22083291    -0.70200
O200        O  0.16925741  0.54890492  0.21110775    -0.70200
O201        O  0.20866247  0.53546856  0.22081452    -0.70100
O202        O  0.26435339  0.56458987  0.23405152    -0.70100
O203        O  0.22046642  0.55047746  0.25843134    -0.70100
O204        O  0.25367138  0.54951437  0.19628033    -0.70300
V205        V  0.19860027  0.56294069  0.21614824     1.35200
V206        V  0.23603732  0.55022596  0.22707765     1.35200
C207        C  0.23981495  0.55568040  0.17965699     0.79200
C208        C  0.19695353  0.55800851  0.26397986     0.79200
C209        C  0.25418843  0.57608364  0.22975493     0.79100
C210        C  0.17887967  0.53730813  0.21453173     0.79100
O211        O  0.37877319  0.68385884  0.23386462    -0.70100
O212        O  0.40995902  0.68105024  0.29732991    -0.70300
O213        O  0.37919291  0.66525642  0.26698025    -0.70200
O214        O  0.41100937  0.69979851  0.26402212    -0.70200
O215        O  0.36592289  0.70682511  0.28048900    -0.70100
O216        O  0.33025008  0.67235414  0.27598315    -0.70100
O217        O  0.36077201  0.68623864  0.30931795    -0.70100
O218        O  0.33395109  0.69300635  0.24689650    -0.70300
V219        V  0.39392051  0.68266244  0.26574004     1.35200
V220        V  0.34855543  0.68951274  0.27787086     1.35200
C221        C  0.35058703  0.68888705  0.22969574     0.79200
C222        C  0.39002656  0.68282872  0.31423739     0.79200
C223        C  0.34920143  0.66283641  0.27117733     0.79100
C224        C  0.39496128  0.70907326  0.27308300     0.79100
O225        O  0.49501140  0.93138252  0.77394835    -0.70100
O226        O  0.02971572  0.92583663  0.71141697    -0.70300
O227        O  0.02904956  0.94529280  0.74300220    -0.70200
O228        O  0.49673254  0.91181619  0.74317821    -0.70200
O229        O  0.44814434  0.91885875  0.73261551    -0.70100
O230        O  0.48511385  0.95288205  0.72438805    -0.70100
O231        O  0.48061548  0.93124858  0.69799569    -0.70100
O232        O  0.45121384  0.94035543  0.75879122    -0.70300
V233        V  0.51172209  0.92914792  0.74274999     1.35200
V234        V  0.46710699  0.93575717  0.72868215     1.35200
C235        C  0.46684030  0.93667281  0.77688995     0.79200
C236        C  0.51011148  0.92770367  0.69433260     0.79200
C237        C  0.01307226  0.95440094  0.73320455     0.79100
C238        C  0.46668765  0.90950077  0.73910626     0.79100
O239        O  0.33133266  0.80805603  0.82703960    -0.70100
O240        O  0.30468522  0.81209917  0.76292974    -0.70300
O241        O  0.28827611  0.79583365  0.79825103    -0.70200
O242        O  0.34645099  0.82432883  0.79190634    -0.70200
O243        O  0.38507143  0.81134877  0.77912313    -0.70100
O244        O  0.32788455  0.78243293  0.78920312    -0.70100
O245        O  0.34243009  0.79810484  0.75297554    -0.70100
O246        O  0.37165420  0.79562230  0.81560593    -0.70300
V247        V  0.31833900  0.80979772  0.79489100     1.35200
V248        V  0.35597326  0.79709998  0.78455078     1.35200
C249        C  0.35711047  0.80150402  0.83205075     0.79200
C250        C  0.31948399  0.80579802  0.74692751     0.79200
C251        C  0.29780532  0.78428659  0.79448929     0.79100
C252        C  0.37514817  0.82277161  0.78375237     0.79100
O253        O  0.32998593  0.93014601  0.94132005    -0.70100
O254        O  0.29887722  0.92739701  0.00487462    -0.70300
O255        O  0.28407803  0.94259924  0.96768835    -0.70200
O256        O  0.34308203  0.91467018  0.97835548    -0.70200
O257        O  0.38031546  0.92802286  0.99162965    -0.70100
O258        O  0.32175842  0.95662394  0.97727183    -0.70100
O259        O  0.33525744  0.94186803  0.01495010    -0.70100
O260        O  0.36866480  0.94313435  0.95330103    -0.70300
V261        V  0.31470935  0.92899630  0.97318710     1.35200
V262        V  0.35084315  0.94217286  0.98390921     1.35200
C263        C  0.35554387  0.93691539  0.93668038     0.79200
C264        C  0.31208624  0.93431108  0.02078328     0.79200
C265        C  0.29207312  0.95433228  0.97115491     0.79100
C266        C  0.37093796  0.91639977  0.98774039     0.79100
O267        O  0.48841106  0.80748501  0.99747511    -0.70100
O268        O  0.02133737  0.81082609  0.06167629    -0.70300
O269        O  0.02260307  0.79177783  0.02912203    -0.70200
O270        O  0.48514895  0.82628402  0.02989028    -0.70200
O271        O  0.43777872  0.81802251  0.03997136    -0.70100
O272        O  0.47944157  0.78423429  0.04338111    -0.70100
O273        O  0.47122876  0.80435471  0.07283528    -0.70100
O274        O  0.44460341  0.79775337  0.01075557    -0.70300
V275        V  0.50312987  0.80931682  0.02923325     1.35200
V276        V  0.45912301  0.80122549  0.04150209     1.35200
C277        C  0.46091620  0.80193787  0.99343797     0.79200
C278        C  0.49950230  0.80876190  0.07768260     0.79200
C279        C  0.50877535  0.78281895  0.03577844     0.79100
C280        C  0.45498498  0.82798160  0.03461890     0.79100
O281        O  0.45420330  0.56257866  0.68238434    -0.70100
O282        O  0.42340710  0.56654369  0.74579990    -0.70300
O283        O  0.46642456  0.57880780  0.71782666    -0.70200
O284        O  0.40904400  0.55020706  0.71003805    -0.70200
O285        O  0.44844393  0.53673397  0.71951772    -0.70100
O286        O  0.00632561  0.56625102  0.73292208    -0.70100
O287        O  0.45934414  0.55197960  0.75694492    -0.70100
O288        O  0.99655905  0.55072045  0.69564213    -0.70300
V289        V  0.43883497  0.56421527  0.71415887     1.35200
V290        V  0.47575847  0.55153509  0.72597849     1.35200
C291        C  0.48111085  0.55648076  0.67850997     0.79200
C292        C  0.43696034  0.56003845  0.76231241     0.79200
C293        C  0.99620346  0.57764577  0.72776769     0.79100
C294        C  0.41855543  0.53858664  0.71344688     0.79100
O295        O  0.12546410  0.68377079  0.73745795    -0.70100
O296        O  0.15168513  0.67988617  0.80178423    -0.70300
O297        O  0.11920906  0.66529805  0.77041092    -0.70200
O298        O  0.15908134  0.69846554  0.76850180    -0.70200
O299        O  0.11440389  0.70722516  0.78270832    -0.70100
O300        O  0.07164183  0.67416832  0.77825824    -0.70100
O301        O  0.10351287  0.68718102  0.81224638    -0.70100
O302        O  0.08156724  0.69419095  0.74883451    -0.70300
V303        V  0.13806828  0.68205739  0.76974482     1.35200
V304        V  0.09366940  0.69056301  0.78031769     1.35200
C305        C  0.09858623  0.68956130  0.73225000     0.79200
C306        C  0.13133908  0.68252049  0.81806667     0.79200
C307        C  0.08853524  0.66405495  0.77369016     0.79100
C308        C  0.14414854  0.70842470  0.77603607     0.79100
O309        O  0.12801184  0.56245874  0.51680798    -0.70100
O310        O  0.16073117  0.56484232  0.45349235    -0.70300
O311        O  0.12886877  0.58078495  0.48305531    -0.70200
O312        O  0.16177257  0.54644671  0.48748274    -0.70200
O313        O  0.11746881  0.53907178  0.47058143    -0.70100
O314        O  0.08014728  0.57349771  0.47390992    -0.70100
O315        O  0.11177903  0.55951093  0.44118311    -0.70100
O316        O  0.08397888  0.55306261  0.50334765    -0.70300
V317        V  0.14404903  0.56345777  0.48502191     1.35200
V318        V  0.09919329  0.55636508  0.47254073     1.35200
C319        C  0.09969957  0.55747705  0.52071630     0.79200
C320        C  0.14094632  0.56299963  0.43646481     0.79200
C321        C  0.09888613  0.58308227  0.47856415     0.79100
C322        C  0.14640619  0.53699532  0.47853974     0.79100
O323        O  0.46775419  0.68308078  0.56579900    -0.70100
O324        O  0.43955431  0.67975253  0.50200565    -0.70300
O325        O  0.48457638  0.66805379  0.52951906    -0.70200
O326        O  0.42154577  0.69483635  0.53843873    -0.70200
O327        O  0.45859094  0.70941448  0.52987246    -0.70100
O328        O  0.02061244  0.68211967  0.51657464    -0.70100
O329        O  0.47383871  0.69505213  0.49194391    -0.70100
O330        O  0.50593692  0.69654798  0.55443278    -0.70300
V331        V  0.45398137  0.68174125  0.53377646     1.35200
V332        V  0.48890797  0.69557513  0.52343397     1.35200
C333        C  0.49276525  0.68999915  0.57083287     0.79200
C334        C  0.45229161  0.68677129  0.48596922     0.79200
C335        C  0.51253916  0.67043071  0.52066902     0.79100
C336        C  0.42911634  0.70671474  0.53576277     0.79100
O337        O  0.31934846  0.43284144  0.42670454    -0.70100
O338        O  0.28745486  0.42772114  0.48964917    -0.70300
O339        O  0.27789750  0.44591317  0.45591722    -0.70200
O340        O  0.32713280  0.41468463  0.45999576    -0.70200
O341        O  0.36981740  0.42523082  0.47317590    -0.70100
O342        O  0.31934832  0.45693174  0.46968595    -0.70100
O343        O  0.33019554  0.43833236  0.50240542    -0.70100
O344        O  0.36053532  0.44392876  0.44065435    -0.70300
V345        V  0.30369396  0.43054749  0.45829423     1.35200
V346        V  0.34409334  0.44093439  0.47118804     1.35200
C347        C  0.34623417  0.43897847  0.42317432     0.79200
C348        C  0.30422679  0.43196832  0.50685438     0.79200
C349        C  0.28955874  0.45669669  0.46256365     0.79100
C350        C  0.35673902  0.41454360  0.46693343     0.79100
O351        O  0.50224700  0.30822974  0.42313443    -0.70100
O352        O  0.03648501  0.31165754  0.48540963    -0.70300
O353        O  0.04282950  0.29420150  0.45092389    -0.70200
O354        O  0.49584802  0.32598675  0.45718917    -0.70200
O355        O  0.45309234  0.31571363  0.47094835    -0.70100
O356        O  0.50065112  0.28349386  0.46491444    -0.70100
O357        O  0.49237232  0.30112183  0.49863931    -0.70100
O358        O  0.45978587  0.29785138  0.43705444    -0.70300
V359        V  0.51817922  0.30994961  0.45480603     1.35200
V360        V  0.47728777  0.29972932  0.46752436     1.35200
C361        C  0.47449276  0.30273950  0.41958780     0.79200
C362        C  0.51879081  0.30712681  0.50317260     0.79200
C363        C  0.03031344  0.28349247  0.45735600     0.79100
C364        C  0.46690871  0.32641261  0.46531798     0.79100
O365        O  0.49868190  0.43663457  0.26590139    -0.70100
O366        O  0.03610148  0.43305667  0.20407796    -0.70300
O367        O  0.03740534  0.45167289  0.23712817    -0.70200
O368        O  0.49966741  0.41828067  0.23260896    -0.70200
O369        O  0.45351527  0.42638473  0.21933862    -0.70100
O370        O  0.49183749  0.46042046  0.22091343    -0.70100
O371        O  0.48871374  0.44112466  0.18987192    -0.70100
O372        O  0.45503387  0.44574821  0.25082103    -0.70300
V373        V  0.51645665  0.43538099  0.23473823     1.35200
V374        V  0.47313721  0.44329691  0.22064123     1.35200
C375        C  0.46999206  0.44149702  0.26876759     0.79200
C376        C  0.51733712  0.43669529  0.18615378     0.79200
C377        C  0.02336554  0.46150513  0.22805592     0.79100
C378        C  0.47062786  0.41649140  0.22522931     0.79100
O379        O  0.33543002  0.30745458  0.25565208    -0.70100
O380        O  0.30836294  0.31187284  0.19161517    -0.70300
O381        O  0.29845249  0.29358759  0.22508785    -0.70200
O382        O  0.34378935  0.32559063  0.22246737    -0.70200
O383        O  0.38939920  0.31570863  0.21318312    -0.70100
O384        O  0.34140912  0.28346083  0.21126335    -0.70100
O385        O  0.35433534  0.30286045  0.18058455    -0.70100
O386        O  0.37785671  0.29624320  0.24388427    -0.70300
V387        V  0.32230071  0.30937657  0.22350162     1.35200
V388        V  0.36489983  0.29970726  0.21246797     1.35200
C389        C  0.36189772  0.30130397  0.26058717     0.79200
C390        C  0.32749156  0.30844514  0.17508017     0.79200
C391        C  0.31144977  0.28312825  0.21794989     0.79100
C392        C  0.37426289  0.32623832  0.21799963     0.79100
O393        O  0.09932313  0.05317608  0.00472794    -0.70100
O394        O  0.13604937  0.05336524  0.94297957    -0.70300
O395        O  0.10017658  0.06992650  0.96836896    -0.70200
O396        O  0.13653380  0.03649989  0.97938523    -0.70200
O397        O  0.09330759  0.02743299  0.96370104    -0.70100
O398        O  0.05400344  0.06133382  0.95675941    -0.70100
O399        O  0.08995946  0.04547967  0.92965823    -0.70100
O400        O  0.05586946  0.04328076  0.99144075    -0.70300
V401        V  0.11714246  0.05302467  0.97368344     1.35200
V402        V  0.07406981  0.04450093  0.96076677     1.35200
C403        C  0.07095337  0.04833010  0.00858658     0.79200
C404        C  0.11865413  0.04979985  0.92564209     0.79200
C405        C  0.07122035  0.07146228  0.96056897     0.79100
C406        C  0.12213308  0.02633305  0.97234328     0.79100
O407        O  0.44777364  0.18111880  0.01179014    -0.70100
O408        O  0.41516843  0.17631343  0.94880878    -0.70300
O409        O  0.45493443  0.16310964  0.97824742    -0.70200
O410        O  0.40573509  0.19446739  0.98234940    -0.70200
O411        O  0.44807758  0.20568553  0.97053169    -0.70100
O412        O  0.99489975  0.17313602  0.96462205    -0.70100
O413        O  0.45567398  0.18832049  0.93605755    -0.70100
O414        O  0.98738519  0.19067853  0.99919065    -0.70300
V415        V  0.43161840  0.17902756  0.98014419     1.35200
V416        V  0.97002754  0.18893309  0.96853984     1.35200
C417        C  0.47594498  0.18637516  0.01502616     0.79200
C418        C  0.43036799  0.18158710  0.93168404     0.79200
C419        C  0.98174500  0.16234068  0.97042258     0.79100
C420        C  0.41776631  0.20540538  0.97652409     0.79100
O421        O  0.43125335  0.05949831  0.17404317    -0.70100
O422        O  0.40395004  0.06343962  0.23857807    -0.70300
O423        O  0.44045072  0.07722885  0.20783675    -0.70200
O424        O  0.39257013  0.04583355  0.20468701    -0.70200
O425        O  0.43464210  0.03496841  0.21824520    -0.70100
O426        O  0.98792799  0.06729790  0.21787765    -0.70100
O427        O  0.44935852  0.05367809  0.24920990    -0.70100
O428        O  0.97686893  0.04842509  0.18626549    -0.70300
V429        V  0.41780966  0.06125486  0.20641451     1.35200
V430        V  0.45954862  0.05092653  0.21745344     1.35200
C431        C  0.45756566  0.05314194  0.16934413     0.79200
C432        C  0.42307314  0.05947475  0.25492190     0.79200
C433        C  0.47072851  0.07745932  0.21302658     0.79100
C434        C  0.40435048  0.03517974  0.21219176     0.79100
O435        O  0.12513538  0.18114727  0.17574474    -0.70100
O436        O  0.15487416  0.17879727  0.23990877    -0.70300
O437        O  0.11566720  0.16487533  0.21175982    -0.70200
O438        O  0.16650302  0.19517423  0.20366383    -0.70200
O439        O  0.12547076  0.20728433  0.21507127    -0.70100
O440        O  0.07295322  0.17629618  0.22223373    -0.70100
O441        O  0.11254465  0.19047566  0.25030396    -0.70100
O442        O  0.08431303  0.19329097  0.18725383    -0.70300
V443        V  0.13981203  0.18029092  0.20793462     1.35200
V444        V  0.09966861  0.19165030  0.21846468     1.35200
C445        C  0.09857690  0.18729703  0.17081627     0.79200
C446        C  0.13811328  0.18412317  0.25613799     0.79200
C447        C  0.08580589  0.16522774  0.21785581     0.79100
C448        C  0.15553062  0.20633717  0.20871972     0.79100
C449        C  0.03351539  0.10461573  0.23074007     0.14400
C450        C  0.01759881  0.11580785  0.22167368     0.01300
C451        C  0.48763600  0.11371812  0.20666423     0.16300
C452        C  0.47266498  0.10151102  0.20464623     0.25700
C453        C  0.98926274  0.09090092  0.21586841    -0.40600
C454        C  0.01952529  0.09224521  0.22781607     0.32800
C455        C  0.03460700  0.12852857  0.22165788     0.01400
F456        F  0.47287639  0.12432728  0.19665695    -0.12900
F457        F  0.03549559  0.08164628  0.23682576    -0.13400
C458        C  0.06464387  0.12965210  0.20966584     0.16300
C459        C  0.08082074  0.14158578  0.20838583     0.25700
C460        C  0.06725544  0.15279577  0.21915981    -0.40600
C461        C  0.03677830  0.15172612  0.23095378     0.32700
C462        C  0.02049611  0.13963861  0.23216992     0.14400
F463        F  0.07796219  0.11918493  0.19850383    -0.12900
F464        F  0.02296396  0.16227168  0.24152578    -0.13400
F465        F  0.10956476  0.14213157  0.19607172    -0.15700
F466        F  0.99119976  0.13872936  0.24371891    -0.14300
F467        F  0.06286316  0.10569510  0.24220411    -0.14300
F468        F  0.44344582  0.10078857  0.19290616    -0.15700
C469        C  0.00711612  0.17455963  0.07587491     0.14400
C470        C  0.02749628  0.18521440  0.08174353     0.01300
C471        C  0.54162288  0.19270369  0.06193451     0.16300
C472        C  0.52383955  0.19314770  0.04080846     0.25700
C473        C  0.98899995  0.18574124  0.03994617    -0.40600
C474        C  0.98788749  0.17484419  0.05521804     0.32800
C475        C  0.04644484  0.18553311  0.10425712     0.01400
F476        F  0.57105052  0.19904209  0.06340431    -0.12900
F477        F  0.96929641  0.16425842  0.04968461    -0.13400
C478        C  0.07246018  0.17670411  0.10908247     0.16300
C479        C  0.09053169  0.17751504  0.13022626     0.25700
C480        C  0.08279194  0.18715021  0.14700648    -0.40600
C481        C  0.05690661  0.19603728  0.14178957     0.32700
C482        C  0.03904334  0.19519258  0.12081937     0.14400
F483        F  0.08051941  0.16736228  0.09325358    -0.12900
F484        F  0.04843799  0.20558324  0.15711688    -0.13400
F485        F  0.11490120  0.16864524  0.13450453    -0.15700
F486        F  0.01383209  0.20374146  0.11684734    -0.14300
F487        F  0.00563836  0.16393055  0.09023176    -0.14300
F488        F  0.53713674  0.19994606  0.02258778    -0.15700
C489        C  0.00752515  0.04496810  0.05793625     0.14400
C490        C  0.02354809  0.05115803  0.07672234     0.01300
C491        C  0.05563907  0.05615456  0.07312516     0.16300
C492        C  0.07130677  0.05500136  0.05126493     0.25700
C493        C  0.05515971  0.04891694  0.03229456    -0.40600
C494        C  0.02298352  0.04390521  0.03600259     0.32800
C495        C  0.00733874  0.05195011  0.10024339     0.01400
F496        F  0.07173353  0.06237512  0.09073713    -0.12900
F497        F  0.50294626  0.03810648  0.01817778    -0.13400
C498        C  0.02352307  0.04690896  0.12015128     0.16300
C499        C  0.50366870  0.04640960  0.14209036     0.25700
C500        C  0.47218805  0.05229979  0.14518253    -0.40600
C501        C  0.96045197  0.05803711  0.12520889     0.32700
C502        C  0.97563003  0.05754391  0.10299119     0.14400
F503        F  0.54877165  0.04008835  0.11798725    -0.12900
F504        F  0.92998493  0.06356218  0.12707542    -0.13400
F505        F  0.52038029  0.04105284  0.16048828    -0.15700
F506        F  0.95960393  0.06278883  0.08419584    -0.14300
F507        F  0.47307537  0.03989688  0.06043767    -0.14300
F508        F  0.10223554  0.05998504  0.04871686    -0.15700
C509        C  0.01272666  0.10029758  0.95303168     0.14400
C510        C  0.03489365  0.11084305  0.95477310     0.01300
C511        C  0.06898683  0.10836230  0.95558906     0.16300
C512        C  0.08073460  0.09553357  0.95627604     0.25700
C513        C  0.05849190  0.08488614  0.95642934    -0.40600
C514        C  0.02441005  0.08740167  0.95383848     0.32800
C515        C  0.02241794  0.12424484  0.95868750     0.01400
F516        F  0.09090020  0.11836895  0.95721671    -0.12900
F517        F  0.50059923  0.07745306  0.95080140    -0.13400
C518        C  0.00290796  0.12672463  0.97852202     0.16300
C519        C  0.99098920  0.13927109  0.98279317     0.25700
C520        C  0.99853740  0.14965160  0.96737553    -0.40600
C521        C  0.01910566  0.14730391  0.94794980     0.32700
C522        C  0.03094316  0.13465041  0.94360424     0.14400
F523        F  0.49745433  0.11732503  0.99232796    -0.12900
F524        F  0.02634837  0.15708070  0.93257641    -0.13400
F525        F  0.47560274  0.14183403  0.00117429    -0.15700
F526        F  0.04988905  0.13247496  0.92434892    -0.14300
F527        F  0.47861745  0.10261382  0.94766970    -0.14300
F528        F  0.11397769  0.09359710  0.95747546    -0.15700
C529        C  0.27459775  0.25107776  0.19714605     0.14400
C530        C  0.24648063  0.25003114  0.21164172     0.01300
C531        C  0.24134240  0.25940349  0.22914288     0.16300
C532        C  0.26326165  0.26983723  0.23171928     0.25700
C533        C  0.29100627  0.27112328  0.21688592    -0.40600
C534        C  0.29676233  0.26151064  0.19979977     0.32800
C535        C  0.22312663  0.23892205  0.20929979     0.01400
F536        F  0.21521207  0.25835785  0.24401491    -0.12900
F537        F  0.32295667  0.26250593  0.18498441    -0.13400
C538        C  0.23468488  0.22606729  0.21203696     0.16300
C539        C  0.21268489  0.21556840  0.21141683     0.25700
C540        C  0.17838579  0.21768048  0.20821150    -0.40600
C541        C  0.16680232  0.23055992  0.20522198     0.32700
C542        C  0.18901850  0.24109233  0.20564089     0.14400
F543        F  0.26725036  0.22368755  0.21631477    -0.12900
F544        F  0.13409460  0.23295786  0.20165371    -0.13400
F545        F  0.22495683  0.20333909  0.21497980    -0.15700
F546        F  0.17727478  0.25342485  0.20242349    -0.14300
F547        F  0.28006480  0.24219425  0.17997048    -0.14300
F548        F  0.25730729  0.27869546  0.24886532    -0.15700
C549        C  0.42263521  0.38708111  0.20429774     0.14400
C550        C  0.43490441  0.37724548  0.21929671     0.01300
C551        C  0.45883364  0.38032265  0.23617291     0.16300
C552        C  0.47021115  0.39313447  0.23821533     0.25700
C553        C  0.45770663  0.40307828  0.22339333    -0.40600
C554        C  0.43395005  0.39992308  0.20630954     0.32800
C555        C  0.42025900  0.36409452  0.21891447     0.01400
F556        F  0.47023990  0.37100320  0.25124544    -0.12900
F557        F  0.42220349  0.40918442  0.19125930    -0.13400
C558        C  0.43883200  0.35312011  0.21216744     0.16300
C559        C  0.42421123  0.34070245  0.21192400     0.25700
C560        C  0.39084275  0.33914690  0.21860483    -0.40600
C561        C  0.37277423  0.35025392  0.22591743     0.32700
C562        C  0.38735439  0.36255024  0.22596225     0.14400
F563        F  0.47092701  0.35448289  0.20553836    -0.12900
F564        F  0.34087632  0.34931956  0.23326306    -0.13400
F565        F  0.44261752  0.33029223  0.20503351    -0.15700
F566        F  0.36940719  0.37300550  0.23329422    -0.14300
F567        F  0.39957538  0.38421107  0.18776688    -0.14300
F568        F  0.49275663  0.39587371  0.25517783    -0.15700
C569        C  0.40785824  0.29948899  0.37270912     0.14400
C570        C  0.42553135  0.30177147  0.35195027     0.01300
C571        C  0.45971430  0.30434285  0.35330205     0.16300
C572        C  0.47591096  0.30470528  0.37515750     0.25700
C573        C  0.45823630  0.30230739  0.39605471    -0.40600
C574        C  0.42391301  0.29969858  0.39445372     0.32800
C575        C  0.40813137  0.30135618  0.32895994     0.01400
F576        F  0.47730042  0.30668666  0.33343224    -0.12900
F577        F  0.40544677  0.29756229  0.41400587    -0.13400
C578        C  0.38375873  0.31069858  0.32324897     0.16300
C579        C  0.36757224  0.31037270  0.30144930     0.25700
C580        C  0.37541527  0.30065067  0.28491607    -0.40600
C581        C  0.39911992  0.29105320  0.29108281     0.32700
C582        C  0.41527913  0.29142692  0.31284732     0.14400
F583        F  0.37637247  0.32039665  0.33854965    -0.12900
F584        F  0.40681154  0.28128588  0.27600100    -0.13400
F585        F  0.34538005  0.31994301  0.29615234    -0.15700
F586        F  0.43783448  0.28201428  0.31829323    -0.14300
F587        F  0.37491242  0.29689298  0.37189870    -0.14300
F588        F  0.50885309  0.30727941  0.37580266    -0.15700
C589        C  0.40303526  0.44611970  0.31500528     0.14400
C590        C  0.41773706  0.44064956  0.33503872     0.01300
C591        C  0.45041159  0.43594097  0.33373150     0.16300
C592        C  0.46791159  0.43643552  0.31242605     0.25700
C593        C  0.45304821  0.44177757  0.29207169    -0.40600
C594        C  0.42038716  0.44674286  0.29381560     0.32800
C595        C  0.39897311  0.44022183  0.35736956     0.01400
F596        F  0.46516816  0.43069589  0.35304268    -0.12900
F597        F  0.40476158  0.45209352  0.27494057    -0.13400
C598        C  0.37456049  0.43067758  0.36125720     0.16300
C599        C  0.35634504  0.43050412  0.38224749     0.25700
C600        C  0.36218567  0.43994291  0.39967206    -0.40600
C601        C  0.38633236  0.44964340  0.39537178     0.32700
C602        C  0.40448000  0.44975158  0.37446525     0.14400
F603        F  0.36885657  0.42137368  0.34487081    -0.12900
F604        F  0.39256314  0.45905818  0.41146578    -0.13400
F605        F  0.33405674  0.42078679  0.38588495    -0.15700
F606        F  0.42744332  0.45922654  0.37083010    -0.14300
F607        F  0.37168656  0.45092066  0.31600689    -0.14300
F608        F  0.49914875  0.43152090  0.31172413    -0.15700
C609        C  0.40089556  0.35260296  0.47230219     0.14400
C610        C  0.42001408  0.36404656  0.47052711     0.01300
C611        C  0.45439431  0.36304483  0.46797486     0.16300
C612        C  0.46953150  0.35081725  0.46681877     0.25700
C613        C  0.45046996  0.33926354  0.46802194    -0.40600
C614        C  0.41600487  0.34028778  0.47111466     0.32800
C615        C  0.40412233  0.37705318  0.46984772     0.01400
F616        F  0.47326718  0.37395600  0.46570859    -0.12900
F617        F  0.39680366  0.32942707  0.47230968    -0.13400
C618        C  0.41240554  0.38666472  0.48638915     0.16300
C619        C  0.39793663  0.39910726  0.48511175     0.25700
C620        C  0.37481033  0.40201724  0.46738870    -0.40600
C621        C  0.36712152  0.39243763  0.45060685     0.32700
C622        C  0.38170828  0.38009213  0.45180970     0.14400
F623        F  0.43398346  0.38388939  0.50402932    -0.12900
F624        F  0.34574823  0.39508934  0.43276331    -0.13400
F625        F  0.40553218  0.40810157  0.50166829    -0.15700
F626        F  0.37442525  0.37115617  0.43506004    -0.14300
F627        F  0.36754348  0.35337958  0.47496428    -0.14300
F628        F  0.50296404  0.35036704  0.46434036    -0.15700
C629        C  0.17930621  0.50538032  0.45295122     0.14400
C630        C  0.20429602  0.50212065  0.46920332     0.01300
C631        C  0.20803371  0.50972751  0.48942423     0.16300
C632        C  0.18787052  0.52065430  0.49304311     0.25700
C633        C  0.16344103  0.52420683  0.47649431    -0.40600
C634        C  0.15901905  0.51634939  0.45655193     0.32800
C635        C  0.22607847  0.49061835  0.46557179     0.01400
F636        F  0.23128527  0.50653779  0.50573278    -0.12900
F637        F  0.13646167  0.51971423  0.43987750    -0.13400
C638        C  0.26051325  0.49214047  0.46295607     0.16300
C639        C  0.28131674  0.48116205  0.46155860     0.25700
C640        C  0.26797781  0.46847719  0.46273659    -0.40600
C641        C  0.23331515  0.46703856  0.46471419     0.32700
C642        C  0.21266903  0.47799580  0.46613033     0.14400
F643        F  0.27394518  0.50428287  0.46177162    -0.12900
F644        F  0.21935400  0.45499836  0.46629185    -0.13400
F645        F  0.31439681  0.48294476  0.45883576    -0.15700
F646        F  0.17958883  0.47627111  0.46903347    -0.14300
F647        F  0.17540746  0.49821622  0.43317346    -0.14300
F648        F  0.19249133  0.52786540  0.51269822    -0.15700
C649        C  0.54778942  0.63661729  0.52154161     0.14400
C650        C  0.05898467  0.63533392  0.50066524     0.01300
C651        C  0.06002667  0.64634917  0.48581683     0.16300
C652        C  0.04769516  0.65835100  0.49355874     0.25700
C653        C  0.03385178  0.65935398  0.51608195    -0.40600
C654        C  0.53514586  0.64845667  0.52952288     0.32800
C655        C  0.06792321  0.62228277  0.49184787     0.01400
F656        F  0.07088379  0.64526747  0.46337198    -0.12900
F657        F  0.52248511  0.64909260  0.55156181    -0.13400
C658        C  0.04453842  0.61211042  0.49232951     0.16300
C659        C  0.05384863  0.59937594  0.48642129     0.25700
C660        C  0.08674071  0.59667008  0.48003225    -0.40600
C661        C  0.10945799  0.60708558  0.47802115     0.32700
C662        C  0.10011776  0.61976839  0.48396937     0.14400
F663        F  0.51340576  0.61461872  0.49587250    -0.12900
F664        F  0.14114681  0.60493089  0.47105208    -0.13400
F665        F  0.53275104  0.58963938  0.48701294    -0.15700
F666        F  0.12302751  0.62946251  0.48325268    -0.14300
F667        F  0.54776084  0.62607441  0.53616094    -0.14300
F668        F  0.04654795  0.66863316  0.47837415    -0.15700
C669        C  0.04496431  0.69872852  0.67975802     0.14400
C670        C  0.05631413  0.69004542  0.66259399     0.01300
C671        C  0.08308017  0.68171207  0.66787261     0.16300
C672        C  0.09777268  0.68184915  0.69021085     0.25700
C673        C  0.08597030  0.69037710  0.70769136    -0.40600
C674        C  0.05964060  0.69894852  0.70200471     0.32800
C675        C  0.04051284  0.68994699  0.63906745     0.01400
F676        F  0.09434526  0.67316464  0.65157359    -0.12900
F677        F  0.53758916  0.70452155  0.72158802    -0.13400
C678        C  0.05818234  0.69427199  0.61933878     0.16300
C679        C  0.53805270  0.69626424  0.59911624     0.25700
C680        C  0.50718293  0.69020000  0.59501053    -0.40600
C681        C  0.99222299  0.68634874  0.61419373     0.32700
C682        C  0.00743105  0.68597287  0.63634295     0.14400
F683        F  0.09015446  0.69815961  0.62153359    -0.12900
F684        F  0.96033335  0.68231979  0.61224749    -0.13400
F685        F  0.55473596  0.70229291  0.58144624    -0.15700
F686        F  0.98997422  0.68157603  0.65514421    -0.14300
F687        F  0.50928529  0.70395805  0.67852284    -0.14300
F688        F  0.12268048  0.67328487  0.69493083    -0.15700
C689        C  0.50404344  0.56501412  0.61502147     0.14400
C690        C  0.03386776  0.55808944  0.61176103     0.01300
C691        C  0.04481032  0.54972713  0.62977530     0.16300
C692        C  0.02767333  0.54896981  0.65109606     0.25700
C693        C  0.99909720  0.55667416  0.65507961    -0.40600
C694        C  0.48656049  0.56447318  0.63636021     0.32800
C695        C  0.05111072  0.55817640  0.58865409     0.01400
F696        F  0.07185247  0.54203457  0.62652303    -0.12900
F697        F  0.45899671  0.57196484  0.63880908    -0.13400
C698        C  0.08426077  0.56225840  0.58649637     0.16300
C699        C  0.10045179  0.56190262  0.56463089     0.25700
C700        C  0.08388782  0.55729277  0.54450308    -0.40600
C701        C  0.05063511  0.55314316  0.54697676     0.32700
C702        C  0.03457749  0.55363466  0.56869346     0.14400
F703        F  0.10078094  0.56679414  0.60552783    -0.12900
F704        F  0.03314298  0.54871283  0.52830280    -0.13400
F705        F  0.13220214  0.56615824  0.56321157    -0.15700
F706        F  0.00277202  0.54944073  0.57031052    -0.14300
F707        F  0.49273925  0.57290900  0.59750479    -0.14300
F708        F  0.03925042  0.54061356  0.66782235    -0.15700
C709        C  0.52807570  0.61143540  0.72575775     0.14400
C710        C  0.03626578  0.61377771  0.75034191     0.01300
C711        C  0.03482080  0.60309440  0.76591061     0.16300
C712        C  0.02401383  0.59093569  0.75804948     0.25700
C713        C  0.01427192  0.58938678  0.73458559    -0.40600
C714        C  0.51642942  0.59930055  0.71839860     0.32800
C715        C  0.04816740  0.62652991  0.75854419     0.01400
F716        F  0.04260141  0.60460944  0.78891938    -0.12900
F717        F  0.50858074  0.59756657  0.69544680    -0.13400
C718        C  0.02778781  0.63767026  0.75723776     0.16300
C719        C  0.04023682  0.64990250  0.76349685     0.25700
C720        C  0.07329877  0.65110412  0.77095416    -0.40600
C721        C  0.09312501  0.63980506  0.77311688     0.32700
C722        C  0.08064118  0.62764260  0.76691201     0.14400
F723        F  0.49533042  0.63648393  0.74853052    -0.12900
F724        F  0.12498041  0.64055228  0.78064839    -0.13400
F725        F  0.51971543  0.66030918  0.76076331    -0.15700
F726        F  0.10079360  0.61700371  0.76802583    -0.14300
F727        F  0.53226584  0.62118639  0.70974676    -0.14300
F728        F  0.02067127  0.58096298  0.77371811    -0.15700
C729        C  0.24819010  0.98736010  0.97452446     0.14400
C730        C  0.21518217  0.98383972  0.96985851     0.01300
C731        C  0.20796105  0.97082825  0.96436570     0.16300
C732        C  0.23308236  0.96140054  0.96403518     0.25700
C733        C  0.26628130  0.96476910  0.96921517    -0.40600
C734        C  0.27352507  0.97793929  0.97418934     0.32800
C735        C  0.18819494  0.99369161  0.97110445     0.01400
F736        F  0.17624597  0.96713804  0.96010632    -0.12900
F737        F  0.30495364  0.98170484  0.97914794    -0.13400
C738        C  0.16950524  0.99695370  0.95103736     0.16300
C739        C  0.14568933  0.00694183  0.95191589     0.25700
C740        C  0.14035740  0.01382769  0.97285242    -0.40600
C741        C  0.15793985  0.01014206  0.99314241     0.32700
C742        C  0.18148785  0.00009576  0.99232300     0.14400
F743        F  0.17568696  0.99098388  0.93028019    -0.12900
F744        F  0.15295255  0.01657271  0.01361140    -0.13400
F745        F  0.12987849  0.01061493  0.93187429    -0.15700
F746        F  0.19823824  0.99676870  0.01216012    -0.14300
F747        F  0.25586840  0.99996786  0.97942841    -0.14300
F748        F  0.22444680  0.94887262  0.95925175    -0.15700
C749        C  0.45177415  0.86481340  0.02994815     0.14400
C750        C  0.41966659  0.86695595  0.02138102     0.01300
C751        C  0.39763344  0.85632550  0.01992448     0.16300
C752        C  0.40822386  0.84362464  0.02573710     0.25700
C753        C  0.44110050  0.84138668  0.03292051    -0.40600
C754        C  0.46237921  0.85218938  0.03568789     0.32800
C755        C  0.41014022  0.88008226  0.01238661     0.01400
F756        F  0.36614105  0.85821326  0.01221705    -0.12900
F757        F  0.49401412  0.85049045  0.04325033    -0.13400
C758        C  0.40128469  0.88168061  0.98869509     0.16300
C759        C  0.39118445  0.89389236  0.98016439     0.25700
C760        C  0.39003179  0.90477459  0.99508876    -0.40600
C761        C  0.40061332  0.90337159  0.01848006     0.32700
C762        C  0.41052224  0.89108610  0.02709710     0.14400
F763        F  0.40203215  0.87134625  0.97386333    -0.12900
F764        F  0.39880917  0.91362657  0.03343852    -0.13400
F765        F  0.38141476  0.89502747  0.95742523    -0.15700
F766        F  0.41885358  0.88978821  0.05008483    -0.14300
F767        F  0.47356598  0.87486298  0.03146223    -0.14300
F768        F  0.38700543  0.83347798  0.02291612    -0.15700
C769        C  0.21684192  0.76587731  0.79126561     0.14400
C770        C  0.22794353  0.75291666  0.78983883     0.01300
C771        C  0.26194121  0.75018005  0.79192434     0.16300
C772        C  0.28471317  0.76033062  0.79440306     0.25700
C773        C  0.27379432  0.77340446  0.79492034    -0.40600
C774        C  0.23948529  0.77604099  0.79389495     0.32800
C775        C  0.20427549  0.74227536  0.78525582     0.01400
F776        F  0.27310041  0.73764981  0.79130276    -0.12900
F777        F  0.22775250  0.78849329  0.79429033    -0.13400
C778        C  0.20818258  0.73445233  0.76530308     0.16300
C779        C  0.18740666  0.72378973  0.76168079     0.25700
C780        C  0.16211054  0.72087246  0.77783074    -0.40600
C781        C  0.15703292  0.72913270  0.79711860     0.32700
C782        C  0.17813542  0.73973523  0.80087772     0.14400
F783        F  0.23241251  0.73707502  0.74944960    -0.12900
F784        F  0.13310705  0.72644827  0.81314912    -0.13400
F785        F  0.19231627  0.71619213  0.74252995    -0.15700
F786        F  0.17407757  0.74713758  0.82035906    -0.14300
F787        F  0.18413956  0.76875189  0.78899430    -0.14300
F788        F  0.31742836  0.75734462  0.79596906    -0.15700
C789        C  0.37031222  0.80719489  0.89741274     0.14400
C790        C  0.40070933  0.80077196  0.90119451     0.01300
C791        C  0.41597518  0.79430360  0.88250240     0.16300
C792        C  0.40149933  0.79438438  0.86027366     0.25700
C793        C  0.37115775  0.80093418  0.85617221    -0.40600
C794        C  0.35565651  0.80731651  0.87509295     0.32800
C795        C  0.41666227  0.80074652  0.92459573     0.01400
F796        F  0.44494814  0.78777915  0.88583932    -0.12900
F797        F  0.32660872  0.81381797  0.87202200    -0.13400
C798        C  0.40045427  0.79513981  0.94390173     0.16300
C799        C  0.41533911  0.79512209  0.96603527     0.25700
C800        C  0.44688362  0.80080773  0.96939247    -0.40600
C801        C  0.46347053  0.80608556  0.94977703     0.32700
C802        C  0.44844834  0.80606197  0.92761465     0.14400
F803        F  0.37020923  0.78955255  0.94126615    -0.12900
F804        F  0.49398618  0.81147214  0.95201126    -0.13400
F805        F  0.39846075  0.78963640  0.98418367    -0.15700
F806        F  0.46464473  0.81152051  0.90913652    -0.14300
F807        F  0.35519183  0.81360886  0.91524729    -0.14300
F808        F  0.41772230  0.78815060  0.84271879    -0.15700
C809        C  0.40263019  0.94256076  0.82474384     0.14400
C810        C  0.41917823  0.93809177  0.84493653     0.01300
C811        C  0.45224503  0.93386391  0.84293470     0.16300
C812        C  0.46817779  0.93377153  0.82105177     0.25700
C813        C  0.45138640  0.93794134  0.80060635    -0.40600
C814        C  0.41846656  0.94252979  0.80287782     0.32800
C815        C  0.40212171  0.93798580  0.86811586     0.01400
F816        F  0.46890140  0.92948280  0.86215609    -0.12900
F817        F  0.40113449  0.94681743  0.78388809    -0.13400
C818        C  0.37311189  0.93063071  0.87173334     0.16300
C819        C  0.35759276  0.93035691  0.89380531     0.25700
C820        C  0.37070231  0.93749495  0.91274475    -0.40600
C821        C  0.39957946  0.94501407  0.90880809     0.32700
C822        C  0.41497022  0.94523234  0.88682246     0.14400
F823        F  0.36023677  0.92344169  0.85399858    -0.12900
F824        F  0.41335389  0.95215725  0.92626577    -0.13400
F825        F  0.33001090  0.92295372  0.89662725    -0.15700
F826        F  0.44243079  0.95268642  0.88373299    -0.14300
F827        F  0.37105095  0.94707507  0.82622016    -0.14300
F828        F  0.49989520  0.92939640  0.81992517    -0.15700
C829        C  0.41066316  0.88196783  0.75768049     0.14400
C830        C  0.43275075  0.87133744  0.75723518     0.01300
C831        C  0.46521680  0.87313885  0.74926364     0.16300
C832        C  0.47577753  0.88550037  0.74224467     0.25700
C833        C  0.45396467  0.89625808  0.74318196    -0.40600
C834        C  0.42119487  0.89437096  0.75069682     0.32800
C835        C  0.42182238  0.85835087  0.76505036     0.01400
F836        F  0.48698454  0.86299424  0.74901672    -0.12900
F837        F  0.39989799  0.90461236  0.75247198    -0.13400
C838        C  0.42190388  0.84785871  0.74928688     0.16300
C839        C  0.40883044  0.83581378  0.75605809     0.25700
C840        C  0.39524360  0.83424090  0.77854075    -0.40600
C841        C  0.39633553  0.84457245  0.79460246     0.32700
C842        C  0.40988714  0.85654279  0.78796438     0.14400
F843        F  0.43275430  0.84953321  0.72692201    -0.12900
F844        F  0.38336825  0.84315751  0.81645540    -0.13400
F845        F  0.40683313  0.82606898  0.74004763    -0.15700
F846        F  0.41062294  0.86647531  0.80365805    -0.14300
F847        F  0.37898841  0.88033658  0.76511060    -0.14300
F848        F  0.50755360  0.88697852  0.73491600    -0.15700
C849        C  0.44264685  0.67976968  0.36961906     0.14400
C850        C  0.41848859  0.68078214  0.38732453     0.01300
C851        C  0.38500447  0.68156796  0.38082466     0.16300
C852        C  0.37584855  0.68176154  0.35717021     0.25700
C853        C  0.40003845  0.68131428  0.33928719    -0.40600
C854        C  0.43355809  0.68004407  0.34583584     0.32800
C855        C  0.42803989  0.68187900  0.41247100     0.01400
F856        F  0.36108496  0.68273147  0.39741985    -0.12900
F857        F  0.45767163  0.67944124  0.32930167    -0.13400
C858        C  0.44907640  0.69199507  0.41971416     0.16300
C859        C  0.45667895  0.69362628  0.44347634     0.25700
C860        C  0.44323404  0.68519797  0.46073278    -0.40600
C861        C  0.42222421  0.67500574  0.45337414     0.32700
C862        C  0.41479839  0.67336518  0.42951647     0.14400
F863        F  0.46160082  0.70058197  0.40377462    -0.12900
F864        F  0.40902292  0.66651151  0.46917479    -0.13400
F865        F  0.47710108  0.70358968  0.44947469    -0.15700
F866        F  0.39485325  0.66334762  0.42301925    -0.14300
F867        F  0.47516602  0.67864176  0.37537307    -0.14300
F868        F  0.34309935  0.68263005  0.35190546    -0.15700
C869        C  0.16668743  0.57270279  0.32135844     0.14400
C870        C  0.17411079  0.56265817  0.33755602     0.01300
C871        C  0.18773239  0.55091364  0.32923060     0.16300
C872        C  0.19443370  0.54931614  0.30531483     0.25700
C873        C  0.18730126  0.55939115  0.28904562    -0.40600
C874        C  0.17311219  0.57107780  0.29734674     0.32800
C875        C  0.16663508  0.56415698  0.36299719     0.01400
F876        F  0.19401327  0.54084804  0.34426464    -0.12900
F877        F  0.16664611  0.58115201  0.28238370    -0.13400
C878        C  0.13408302  0.56667134  0.37035443     0.16300
C879        C  0.12625046  0.56690377  0.39424639     0.25700
C880        C  0.15078267  0.56453835  0.41144967    -0.40600
C881        C  0.18368803  0.56263391  0.40412755     0.32700
C882        C  0.19151307  0.56241182  0.38011462     0.14400
F883        F  0.10944133  0.56831536  0.35435831    -0.12900
F884        F  0.20801813  0.56037665  0.42011097    -0.13400
F885        F  0.09434964  0.56925441  0.40050897    -0.15700
F886        F  0.22336456  0.56029154  0.37353841    -0.14300
F887        F  0.15395304  0.58423468  0.32888167    -0.14300
F888        F  0.20764971  0.53780894  0.29807494    -0.15700
C889        C  0.09821669  0.51848518  0.21430877     0.14400
C890        C  0.10947977  0.50553597  0.21364169     0.01300
C891        C  0.14352325  0.50301079  0.21122180     0.16300
C892        C  0.16621641  0.51333504  0.21058273     0.25700
C893        C  0.15513135  0.52635231  0.21238516    -0.40600
C894        C  0.12074697  0.52881268  0.21368127     0.32800
C895        C  0.08599522  0.49471308  0.21762833     0.01400
F896        F  0.15476850  0.49051381  0.20992197    -0.12900
F897        F  0.10884411  0.54118563  0.21565934    -0.13400
C898        C  0.06120203  0.49186207  0.20114688     0.16300
C899        C  0.03929081  0.48148479  0.20514866     0.25700
C900        C  0.04197579  0.47384165  0.22571070    -0.40600
C901        C  0.06624979  0.47700611  0.24245787     0.32700
C902        C  0.08799176  0.48736782  0.23845806     0.14400
F903        F  0.05908806  0.49880721  0.18080743    -0.12900
F904        F  0.06922791  0.46993180  0.26260706    -0.13400
F905        F  0.01692638  0.47839795  0.18827389    -0.15700
F906        F  0.11115691  0.49023965  0.25491841    -0.14300
F907        F  0.06544150  0.52110912  0.21687796    -0.14300
F908        F  0.19898309  0.51057333  0.20850975    -0.15700
C909        C  0.30855374  0.59947857  0.26328803     0.14400
C910        C  0.30085306  0.61130509  0.25183285     0.01300
C911        C  0.28092316  0.61122008  0.23169545     0.16300
C912        C  0.26737936  0.59957133  0.22373846     0.25700
C913        C  0.27353439  0.58776186  0.23582347    -0.40600
C914        C  0.29494407  0.58773646  0.25532894     0.32800
C915        C  0.31363396  0.62385428  0.26041406     0.01400
F916        F  0.27437207  0.62249641  0.21982193    -0.12900
F917        F  0.30110954  0.57652920  0.26748921    -0.13400
C918        C  0.34756765  0.62646800  0.25929400     0.16300
C919        C  0.35926066  0.63900962  0.26384429     0.25700
C920        C  0.33704115  0.64922297  0.26950675    -0.40600
C921        C  0.30313759  0.64632946  0.27192162     0.32700
C922        C  0.29157691  0.63373008  0.26738054     0.14400
F923        F  0.36919942  0.61705470  0.25242162    -0.12900
F924        F  0.28095123  0.65574691  0.27779192    -0.13400
F925        F  0.39228686  0.64119059  0.26174172    -0.15700
F926        F  0.25864154  0.63123649  0.26902663    -0.14300
F927        F  0.32809642  0.59939920  0.28268994    -0.14300
F928        F  0.24769537  0.59989596  0.20439632    -0.15700
C929        C  0.14891030  0.67113187  0.93399970     0.14400
C930        C  0.16223852  0.67987669  0.91735568     0.01300
C931        C  0.18156577  0.69035307  0.92515568     0.16300
C932        C  0.18742932  0.69215195  0.94908025     0.25700
C933        C  0.17417073  0.68343587  0.96597925    -0.40600
C934        C  0.15491646  0.67285166  0.95808539     0.32800
C935        C  0.15423371  0.67879993  0.89197878     0.01400
F936        F  0.19415254  0.69911073  0.90953851    -0.12900
F937        F  0.14242156  0.66400645  0.97355705    -0.13400
C938        C  0.12147728  0.68051503  0.88438305     0.16300
C939        C  0.11406102  0.68131663  0.86044145     0.25700
C940        C  0.13935848  0.68044146  0.84338998    -0.40600
C941        C  0.17206448  0.67809115  0.85105195     0.32700
C942        C  0.17941672  0.67734200  0.87512610     0.14400
F943        F  0.09672715  0.68206806  0.90024530    -0.12900
F944        F  0.19715652  0.67695117  0.83535539    -0.13400
F945        F  0.08198441  0.68318745  0.85406634    -0.15700
F946        F  0.21126095  0.67543110  0.88203598    -0.14300
F947        F  0.13041027  0.66082833  0.92686930    -0.14300
F948        F  0.20607753  0.70254934  0.95558699    -0.15700
C949        C  0.12332250  0.73948134  0.03951721     0.14400
C950        C  0.08964596  0.73660002  0.04312211     0.01300
C951        C  0.08050045  0.72361994  0.04791332     0.16300
C952        C  0.10438339  0.71363228  0.04816876     0.25700
C953        C  0.13805467  0.71639648  0.04350228    -0.40600
C954        C  0.14723979  0.72953280  0.03967322     0.32800
C955        C  0.06425606  0.74712336  0.04080164     0.01400
F956        F  0.04819427  0.72051087  0.05135049    -0.12900
F957        F  0.17930382  0.73279687  0.03564710    -0.13400
C958        C  0.06232113  0.75446365  0.01990510     0.16300
C959        C  0.04165257  0.76541118  0.01837190     0.25700
C960        C  0.02205183  0.76918234  0.03758074    -0.40600
C961        C  0.02199715  0.76130458  0.05790304     0.32700
C962        C  0.04308762  0.75036773  0.05954674     0.14400
F963        F  0.08116188  0.75119934  0.00109470    -0.12900
F964        F  0.00349537  0.76475041  0.07676067    -0.13400
F965        F  0.04147890  0.77259536  0.99823333    -0.15700
F966        F  0.04428226  0.74343483  0.07992660    -0.14300
F967        F  0.13307907  0.75200716  0.03561203    -0.14300
F968        F  0.09415904  0.70118822  0.05227464    -0.15700
C969        C  0.27988371  0.69929141  0.12587147     0.14400
C970        C  0.28079042  0.68820540  0.14057034     0.01300
C971        C  0.26220921  0.67712792  0.13420875     0.16300
C972        C  0.24329536  0.67715027  0.11345611     0.25700
C973        C  0.24273771  0.68824192  0.09866149    -0.40600
C974        C  0.26100907  0.69933989  0.10529354     0.32800
C975        C  0.30014149  0.68853950  0.16287603     0.01400
F976        F  0.26221820  0.66631183  0.14815450    -0.12900
F977        F  0.26070767  0.71031791  0.09175351    -0.13400
C978        C  0.29382385  0.69839301  0.17937208     0.16300
C979        C  0.31153657  0.69886955  0.20044091     0.25700
C980        C  0.33593191  0.68943014  0.20573572    -0.40600
C981        C  0.34294181  0.67973056  0.18898013     0.32700
C982        C  0.32515865  0.67928175  0.16775899     0.14400
F983        F  0.26963802  0.70738879  0.17539369    -0.12900
F984        F  0.36591169  0.67033334  0.19354889    -0.13400
F985        F  0.30445522  0.70854744  0.21585604    -0.15700
F986        F  0.33235922  0.66979616  0.15199440    -0.14300
F987        F  0.29795372  0.71005233  0.13120482    -0.14300
F988        F  0.22663289  0.66616173  0.10740138    -0.15700
C989        C  0.41242376  0.57624535  0.81986306     0.14400
C990        C  0.42084501  0.56645724  0.83632386     0.01300
C991        C  0.43316214  0.55447268  0.82821471     0.16300
C992        C  0.43708132  0.55226959  0.80418441     0.25700
C993        C  0.42886433  0.56204100  0.78754254    -0.40600
C994        C  0.41641756  0.57407407  0.79568789     0.32800
C995        C  0.41408647  0.56811217  0.86179089     0.01400
F996        F  0.44065623  0.54471873  0.84363057    -0.12900
F997        F  0.40920633  0.58389975  0.78037078    -0.13400
C998        C  0.38128082  0.56942862  0.86947679     0.16300
C999        C  0.37375685  0.56887261  0.89339443     0.25700
C1000       C  0.39894116  0.56705314  0.91029247    -0.40600
C1001       C  0.43207607  0.56653477  0.90271050     0.32700
C1002       C  0.43956437  0.56696743  0.87861997     0.14400
F1003       F  0.35619208  0.57050377  0.85369062    -0.12900
F1004       F  0.45701173  0.56487899  0.91845802    -0.13400
F1005       F  0.34154454  0.56985988  0.89998497    -0.15700
F1006       F  0.47159893  0.56591032  0.87166412    -0.14300
F1007       F  0.40082863  0.58798745  0.82725944    -0.14300
F1008       F  0.44875935  0.54045246  0.79722847    -0.15700
C1009       C  0.29905634  0.54875865  0.12911459     0.14400
C1010       C  0.28600724  0.55656771  0.11103354     0.01300
C1011       C  0.25707928  0.56385454  0.11521139     0.16300
C1012       C  0.24169935  0.56349051  0.13731914     0.25700
C1013       C  0.25483733  0.55569898  0.15566573    -0.40600
C1014       C  0.28371009  0.54827753  0.15112532     0.32800
C1015       C  0.30249867  0.55691868  0.08775214     0.01400
F1016       F  0.24405808  0.57151040  0.09795210    -0.12900
F1017       F  0.29743638  0.54054916  0.16799847    -0.13400
C1018       C  0.28852050  0.55033464  0.06868494     0.16300
C1019       C  0.30425891  0.55038756  0.04678808     0.25700
C1020       C  0.33441858  0.55717226  0.04336358    -0.40600
C1021       C  0.34845399  0.56369430  0.06270162     0.32700
C1022       C  0.33270261  0.56350217  0.08466990     0.14400
F1023       F  0.25962508  0.54372459  0.07134934    -0.12900
F1024       F  0.37722504  0.57041040  0.06038356    -0.13400
F1025       F  0.28957051  0.54386649  0.02891619    -0.15700
F1026       F  0.34668610  0.56992751  0.10292404    -0.14300
F1027       F  0.32668024  0.54147412  0.12535372    -0.14300
F1028       F  0.21429126  0.57094205  0.14078352    -0.15700
C1029       C  0.27798202  0.60848053  0.99393071     0.14400
C1030       C  0.29639534  0.61992804  0.98974038     0.01300
C1031       C  0.32664887  0.61906668  0.97776331     0.16300
C1032       C  0.33940227  0.60688037  0.97152583     0.25700
C1033       C  0.32210884  0.59533945  0.97715468    -0.40600
C1034       C  0.29068542  0.59625507  0.98757768     0.32800
C1035       C  0.28497245  0.63265478  0.99895209     0.01400
F1036       F  0.34483141  0.62996442  0.97339024    -0.12900
F1037       F  0.27345160  0.58530035  0.99324904    -0.13400
C1038       C  0.27982609  0.63423064  0.02318275     0.16300
C1039       C  0.26743871  0.64602315  0.03184951     0.25700
C1040       C  0.26085582  0.65649835  0.01649039    -0.40600
C1041       C  0.26735183  0.65513765  0.99242616     0.32700
C1042       C  0.27917677  0.64326724  0.98368400     0.14400
F1043       F  0.28651272  0.62429004  0.03839843    -0.12900
F1044       F  0.25978716  0.66496645  0.97718205    -0.13400
F1045       F  0.26122089  0.64715410  0.05516669    -0.15700
F1046       F  0.28338722  0.64191715  0.96018937    -0.14300
F1047       F  0.24819944  0.60912545  0.00490506    -0.14300
F1048       F  0.36941942  0.60631540  0.96083970    -0.15700
C1049       C  0.37302703  0.17539208  0.82360732     0.14400
C1050       C  0.40543455  0.17570864  0.83233881     0.01300
C1051       C  0.43205603  0.17646137  0.81643776     0.16300
C1052       C  0.42621559  0.17731435  0.79213362     0.25700
C1053       C  0.39360041  0.17768525  0.78343780    -0.40600
C1054       C  0.36711738  0.17640215  0.79948018     0.32800
C1055       C  0.41096928  0.17692089  0.85798227     0.01400
F1056       F  0.46365886  0.17677664  0.82455136    -0.12900
F1057       F  0.33524157  0.17633437  0.79185269    -0.13400
C1058       C  0.40552637  0.16636971  0.87349873     0.16300
C1059       C  0.41021756  0.16791512  0.89780744     0.25700
C1060       C  0.42020580  0.18006629  0.90684459    -0.40600
C1061       C  0.42473990  0.19064019  0.89122189     0.32700
C1062       C  0.42017312  0.18907614  0.86711219     0.14400
F1063       F  0.39656441  0.15451874  0.86502502    -0.12900
F1064       F  0.93532554  0.20189358  0.89989932    -0.13400
F1065       F  0.40671201  0.15741433  0.91228696    -0.15700
F1066       F  0.42453372  0.19950755  0.85258349    -0.14300
F1067       F  0.34693831  0.17479311  0.83859529    -0.14300
F1068       F  0.45231639  0.17849495  0.77729173    -0.15700
C1069       C  0.16653969  0.06099566  0.87176830     0.14400
C1070       C  0.14974910  0.05438138  0.85379979     0.01300
C1071       C  0.12382890  0.04586160  0.85965084     0.16300
C1072       C  0.11434648  0.04414148  0.88301354     0.25700
C1073       C  0.13066522  0.05092523  0.90112192    -0.40600
C1074       C  0.15712144  0.05928332  0.89524448     0.32800
C1075       C  0.15992181  0.05585181  0.82897423     0.01400
F1076       F  0.10803188  0.03899154  0.84268919    -0.12900
F1077       F  0.17329903  0.06609549  0.91208471    -0.13400
C1078       C  0.19175113  0.05200745  0.82203207     0.16300
C1079       C  0.20046190  0.05206406  0.79832513     0.25700
C1080       C  0.17737049  0.05592984  0.78094720    -0.40600
C1081       C  0.14584808  0.06028733  0.78808468     0.32700
C1082       C  0.13722945  0.06022196  0.81189246     0.14400
F1083       F  0.21399490  0.04761240  0.83816504    -0.12900
F1084       F  0.12291478  0.06417948  0.77205023    -0.13400
F1085       F  0.23143923  0.04805928  0.79246201    -0.15700
F1086       F  0.10647085  0.06422908  0.81828423    -0.14300
F1087       F  0.19164179  0.06931909  0.86651215    -0.14300
F1088       F  0.08928963  0.03571334  0.88784578    -0.15700
C1089       C  0.13032679  0.99716873  0.72389841     0.14400
C1090       C  0.09621302  0.99925117  0.72037147     0.01300
C1091       C  0.08503957  0.01167341  0.71356830     0.16300
C1092       C  0.10740262  0.02191134  0.71043229     0.25700
C1093       C  0.14174820  0.01997650  0.71407698    -0.40600
C1094       C  0.15292306  0.00743184  0.72080547     0.32800
C1095       C  0.07209750  0.98856478  0.72420087     0.01400
F1096       F  0.05215957  0.01401602  0.71068005    -0.12900
F1097       F  0.18558779  0.00508399  0.72465756    -0.13400
C1098       C  0.06965270  0.98250782  0.74630353     0.16300
C1099       C  0.04835364  0.97193038  0.74963414     0.25700
C1100       C  0.02892393  0.96728684  0.73097746    -0.40600
C1101       C  0.02989247  0.97379805  0.70921561     0.32700
C1102       C  0.05147319  0.98434767  0.70581823     0.14400
F1103       F  0.08827843  0.98672842  0.76458991    -0.12900
F1104       F  0.01194254  0.96932585  0.69078886    -0.13400
F1105       F  0.04735963  0.96594273  0.77097221    -0.15700
F1106       F  0.05353981  0.99000393  0.68424801    -0.14300
F1107       F  0.14174951  0.98515810  0.73026925    -0.14300
F1108       F  0.09500882  0.03382451  0.70441684    -0.15700
C1109       C  0.27463074  0.13450303  0.71898311     0.14400
C1110       C  0.29521210  0.12335400  0.71910802     0.01300
C1111       C  0.32959356  0.12495965  0.71992473     0.16300
C1112       C  0.34336496  0.13743179  0.72025030     0.25700
C1113       C  0.32299600  0.14870567  0.71947677    -0.40600
C1114       C  0.28841424  0.14709299  0.71922376     0.32800
C1115       C  0.28115645  0.11002698  0.71745773     0.01400
F1116       F  0.35004805  0.11439565  0.71957560    -0.12900
F1117       F  0.26795707  0.15764242  0.71853803    -0.13400
C1118       C  0.26164110  0.10663617  0.69804578     0.16300
C1119       C  0.24820207  0.09411908  0.69640387     0.25700
C1120       C  0.25433979  0.08470770  0.71400767    -0.40600
C1121       C  0.27497897  0.08787705  0.73294843     0.32700
C1122       C  0.28815795  0.10049294  0.73474282     0.14400
F1123       F  0.25579789  0.11543384  0.68056121    -0.12900
F1124       F  0.28082104  0.07902242  0.75033226    -0.13400
F1125       F  0.22901005  0.09116986  0.67758181    -0.15700
F1126       F  0.30685627  0.10354422  0.75373683    -0.14300
F1127       F  0.24119629  0.13317440  0.71851682    -0.14300
F1128       F  0.37687703  0.13839277  0.72115402    -0.15700
C1129       C  0.38437854  0.04519566  0.36239913     0.14400
C1130       C  0.40079011  0.05661985  0.35504883     0.01300
C1131       C  0.41293621  0.06522371  0.37224658     0.16300
C1132       C  0.40764748  0.06267957  0.39621907     0.25700
C1133       C  0.38976466  0.05156430  0.40345069    -0.40600
C1134       C  0.37868393  0.04275157  0.38625202     0.32800
C1135       C  0.40568428  0.05927656  0.32948502     0.01400
F1136       F  0.42881380  0.07636788  0.36581750    -0.12900
F1137       F  0.36206570  0.03174250  0.39252405    -0.13400
C1138       C  0.37863863  0.05925577  0.31375647     0.16300
C1139       C  0.38375095  0.06018472  0.28938925     0.25700
C1140       C  0.41601793  0.06112925  0.28033880    -0.40600
C1141       C  0.44277315  0.06204226  0.29620530     0.32700
C1142       C  0.43769531  0.06105423  0.32042753     0.14400
F1143       F  0.34727069  0.05800479  0.32199897    -0.12900
F1144       F  0.47422951  0.06351306  0.28819626    -0.13400
F1145       F  0.35738375  0.05936492  0.27468768    -0.15700
F1146       F  0.46439375  0.06108496  0.33493537    -0.14300
F1147       F  0.37395368  0.03631459  0.34641372    -0.14300
F1148       F  0.41837416  0.07147877  0.41223970    -0.15700
C1149       C  0.31445180  0.05272784  0.57671140     0.14400
C1150       C  0.28023429  0.05031934  0.57810394     0.01300
C1151       C  0.26258039  0.04777630  0.55746190     0.16300
C1152       C  0.27893784  0.04719413  0.53584477     0.25700
C1153       C  0.31350435  0.04922919  0.53430851    -0.40600
C1154       C  0.33093491  0.05229083  0.55501891     0.32800
C1155       C  0.26315572  0.04979580  0.60116169     0.01400
F1156       F  0.22946362  0.04555222  0.55832585    -0.12900
F1157       F  0.36396333  0.05469004  0.55440401    -0.13400
C1158       C  0.23948639  0.05926967  0.60732800     0.16300
C1159       C  0.22371705  0.05872064  0.62925456     0.25700
C1160       C  0.23129004  0.04863830  0.64540245    -0.40600
C1161       C  0.25431675  0.03894401  0.63878377     0.32700
C1162       C  0.27006717  0.03954908  0.61693024     0.14400
F1163       F  0.23241758  0.06929077  0.59238877    -0.12900
F1164       F  0.26180317  0.02886963  0.65351742    -0.13400
F1165       F  0.20223294  0.06840237  0.63506613    -0.15700
F1166       F  0.29208480  0.03006441  0.61106752    -0.14300
F1167       F  0.33187646  0.05553915  0.59642705    -0.14300
F1168       F  0.26063676  0.04475212  0.51636561    -0.15700
C1169       C  0.14101293  0.19085561  0.32174754     0.14400
C1170       C  0.15958563  0.18025655  0.33036239     0.01300
C1171       C  0.17230462  0.17109688  0.31437503     0.16300
C1172       C  0.16604494  0.17240772  0.29017453     0.25700
C1173       C  0.14707243  0.18297655  0.28150364    -0.40600
C1174       C  0.13484106  0.19222505  0.29766407     0.32800
C1175       C  0.16767399  0.17941829  0.35582129     0.01400
F1176       F  0.19052722  0.16079745  0.32227476    -0.12900
F1177       F  0.11725668  0.20279244  0.29015757    -0.13400
C1178       C  0.14320648  0.17664689  0.37272336     0.16300
C1179       C  0.15082454  0.17685963  0.39686052     0.25700
C1180       C  0.18301478  0.18005621  0.40451298    -0.40600
C1181       C  0.20749887  0.18255763  0.38729032     0.32700
C1182       C  0.19986354  0.18223024  0.36336382     0.14400
F1183       F  0.11186541  0.17382299  0.36581466    -0.12900
F1184       F  0.23912135  0.18544776  0.39346931    -0.13400
F1185       F  0.12654181  0.17425404  0.41264703    -0.15700
F1186       F  0.22382957  0.18511472  0.34746170    -0.14300
F1187       F  0.12950975  0.20010280  0.33668370    -0.14300
F1188       F  0.17778448  0.16315411  0.27536217    -0.15700
C1189       C  0.10669561  0.22818721  0.48194946     0.14400
C1190       C  0.11605360  0.23861289  0.46730248     0.01300
C1191       C  0.14733051  0.23834693  0.45644607     0.16300
C1192       C  0.16873606  0.22774196  0.45993172     0.25700
C1193       C  0.15900302  0.21709935  0.47407444    -0.40600
C1194       C  0.12782561  0.21751994  0.48523417     0.32800
C1195       C  0.09374562  0.24998912  0.46410463     0.01400
F1196       F  0.15680341  0.24821543  0.44189219    -0.12900
F1197       F  0.11747422  0.20754584  0.49925463    -0.13400
C1198       C  0.10529448  0.26255850  0.46932049     0.16300
C1199       C  0.08462074  0.27337063  0.46658601     0.25700
C1200       C  0.05165945  0.27183222  0.45902526    -0.40600
C1201       C  0.03972126  0.25924807  0.45425521     0.32700
C1202       C  0.06078427  0.24839362  0.45647715     0.14400
F1203       F  0.13638108  0.26433380  0.47783020    -0.12900
F1204       F  0.00798826  0.25750178  0.44706793    -0.13400
F1205       F  0.09650979  0.28534043  0.47237062    -0.15700
F1206       F  0.04914029  0.23635771  0.45094271    -0.14300
F1207       F  0.07715154  0.22838440  0.49330961    -0.14300
F1208       F  0.19833365  0.22767594  0.44866186    -0.15700
C1209       C  0.25503348  0.17663856  0.57852824     0.14400
C1210       C  0.27968921  0.18599378  0.58308377     0.01300
C1211       C  0.28636000  0.19555939  0.56600938     0.16300
C1212       C  0.26960010  0.19555926  0.54446040     0.25700
C1213       C  0.24540744  0.18600645  0.53941738    -0.40600
C1214       C  0.23790933  0.17666759  0.55694989     0.32800
C1215       C  0.29803396  0.18610757  0.60580206     0.01400
F1216       F  0.30962621  0.20483415  0.57010485    -0.12900
F1217       F  0.21491699  0.16728589  0.55294173    -0.13400
C1218       C  0.32469073  0.17751286  0.61001465     0.16300
C1219       C  0.34223778  0.17787428  0.63138553     0.25700
C1220       C  0.33331038  0.18681099  0.64905512    -0.40600
C1221       C  0.30694516  0.19560151  0.64439108     0.32700
C1222       C  0.28967819  0.19524430  0.62305497     0.14400
F1223       F  0.33369040  0.16875357  0.59339590    -0.12900
F1224       F  0.29750971  0.20454804  0.66057999    -0.13400
F1225       F  0.36724626  0.16919649  0.63500466    -0.15700
F1226       F  0.26431337  0.20375547  0.61934459    -0.14300
F1227       F  0.24763664  0.16744524  0.59498392    -0.14300
F1228       F  0.27726624  0.20496457  0.52844628    -0.15700
C1229       C  0.25197102  0.12512657  0.47522381     0.14400
C1230       C  0.27570576  0.12283153  0.45781298     0.01300
C1231       C  0.28828561  0.13336229  0.44461882     0.16300
C1232       C  0.27722422  0.14608776  0.44886073     0.25700
C1233       C  0.25333325  0.14837356  0.46627220    -0.40600
C1234       C  0.24083907  0.13776929  0.47941947     0.32800
C1235       C  0.28996960  0.10966697  0.45560402     0.01400
F1236       F  0.31118411  0.13127728  0.42761010    -0.12900
F1237       F  0.21811678  0.13964600  0.49664597    -0.13400
C1238       C  0.26984976  0.09881653  0.45075841     0.16300
C1239       C  0.28281901  0.08614818  0.45244481     0.25700
C1240       C  0.31608173  0.08422437  0.45906006    -0.40600
C1241       C  0.33641054  0.09524533  0.46278094     0.32700
C1242       C  0.32337944  0.10779245  0.46116607     0.14400
F1243       F  0.23746090  0.10050649  0.44504566    -0.12900
F1244       F  0.36884561  0.09398316  0.46872609    -0.13400
F1245       F  0.26256101  0.07583101  0.44838045    -0.15700
F1246       F  0.34303727  0.11812782  0.46644400    -0.14300
F1247       F  0.24038852  0.11515116  0.48874346    -0.14300
F1248       F  0.28902987  0.15606782  0.43548161    -0.15700
C1249       C  0.31270677  0.32046837  0.05897054     0.14400
C1250       C  0.29327249  0.31469038  0.07672405     0.01300
C1251       C  0.26488538  0.30771658  0.07039866     0.16300
C1252       C  0.25624395  0.30627991  0.04686096     0.25700
C1253       C  0.27571230  0.31189787  0.02879949    -0.40600
C1254       C  0.30394964  0.31913471  0.03518774     0.32800
C1255       C  0.30379681  0.31466675  0.10170836     0.01400
F1256       F  0.24604473  0.30181488  0.08710293    -0.12900
F1257       F  0.32289352  0.32500456  0.01853702    -0.13400
C1258       C  0.28328476  0.31989772  0.11927319     0.16300
C1259       C  0.29098068  0.31805113  0.14310737     0.25700
C1260       C  0.31931429  0.31084929  0.14985073    -0.40600
C1261       C  0.34017201  0.30591602  0.13204058     0.32700
C1262       C  0.33248340  0.30784120  0.10833321     0.14400
F1263       F  0.25544642  0.32661620  0.11330418    -0.12900
F1264       F  0.36768118  0.29884269  0.13740794    -0.13400
F1265       F  0.27042731  0.32318261  0.15950016    -0.15700
F1266       F  0.35225804  0.30241305  0.09175904    -0.14300
F1267       F  0.34009002  0.32742864  0.06470770    -0.14300
F1268       F  0.22890570  0.29909626  0.04189935    -0.15700
C1269       C  0.38805949  0.24099821  0.97278900     0.14400
C1270       C  0.35339917  0.23948530  0.97131167     0.01300
C1271       C  0.34029203  0.22678537  0.97225382     0.16300
C1272       C  0.36114128  0.21585785  0.97445039     0.25700
C1273       C  0.39593555  0.21728244  0.97566366    -0.40600
C1274       C  0.40908412  0.23003305  0.97484285     0.32800
C1275       C  0.33086288  0.25102386  0.96804618     0.01400
F1276       F  0.30714947  0.22490005  0.97014737    -0.12900
F1277       F  0.44229026  0.23192580  0.97614654    -0.13400
C1278       C  0.33490631  0.25952068  0.94876135     0.16300
C1279       C  0.31385644  0.27032996  0.94557823     0.25700
C1280       C  0.28795921  0.27291743  0.96152285    -0.40600
C1281       C  0.28341959  0.26424549  0.98055261     0.32700
C1282       C  0.30468174  0.25345294  0.98380769     0.14400
F1283       F  0.35922161  0.25730821  0.93282421    -0.12900
F1284       F  0.25962708  0.26662082  0.99679933    -0.13400
F1285       F  0.31902723  0.27835947  0.92686890    -0.15700
F1286       F  0.30047600  0.24564284  0.00292454    -0.14300
F1287       F  0.40159710  0.25313417  0.97243664    -0.14300
F1288       F  0.34707190  0.20381287  0.97444973    -0.15700
C1289       C  0.01768523  0.43512481  0.11974996     0.14400
C1290       C  0.05142776  0.43397504  0.11423791     0.01300
C1291       C  0.57239762  0.43262802  0.13223879     0.16300
C1292       C  0.56225916  0.43306513  0.15581267     0.25700
C1293       C  0.03023401  0.43430121  0.16166747    -0.40600
C1294       C  0.00717513  0.43513522  0.14305397     0.32800
C1295       C  0.06218550  0.43494506  0.08929071     0.01400
F1296       F  0.60484410  0.43054344  0.12726613    -0.12900
F1297       F  0.97417609  0.43615701  0.14727930    -0.13400
C1298       C  0.08489704  0.44459211  0.08224488     0.16300
C1299       C  0.09272266  0.44633428  0.05848041     0.25700
C1300       C  0.07763247  0.43856489  0.04110899    -0.40600
C1301       C  0.05522524  0.42878394  0.04827565     0.32700
C1302       C  0.04780872  0.42694147  0.07207689     0.14400
F1303       F  0.09852816  0.45272947  0.09830254    -0.12900
F1304       F  0.04054619  0.42089506  0.03229351    -0.13400
F1305       F  0.11438514  0.45592499  0.05250901    -0.15700
F1306       F  0.02641214  0.41731074  0.07833227    -0.14300
F1307       F  0.99477058  0.43679756  0.10251708    -0.14300
F1308       F  0.58533362  0.43166723  0.17299307    -0.15700
C1309       C  0.02806867  0.49843354  0.97763405     0.14400
C1310       C  0.49461198  0.49611062  0.97717071     0.01300
C1311       C  0.48297815  0.48326900  0.97531010     0.16300
C1312       C  0.00493889  0.47288221  0.97230257     0.25700
C1313       C  0.03944264  0.47513581  0.97297676    -0.40600
C1314       C  0.05072601  0.48805038  0.97593794     0.32800
C1315       C  0.47053588  0.50709039  0.97814799     0.01400
F1316       F  0.44995250  0.48079744  0.97569109    -0.12900
F1317       F  0.08362208  0.49068307  0.97699668    -0.13400
C1318       C  0.44787251  0.50912685  0.95967499     0.16300
C1319       C  0.42485174  0.51938722  0.96056416     0.25700
C1320       C  0.42432792  0.52786957  0.97985439    -0.40600
C1321       C  0.44657761  0.52565596  0.99854338     0.32700
C1322       C  0.46936913  0.51533401  0.99773321     0.14400
F1323       F  0.44877456  0.50140034  0.94040094    -0.12900
F1324       F  0.44618030  0.53350018  0.01767952    -0.13400
F1325       F  0.40433145  0.52144669  0.94201098    -0.15700
F1326       F  0.49009471  0.51330582  0.01618851    -0.14300
F1327       F  0.03967855  0.51081067  0.97988108    -0.14300
F1328       F  0.99260696  0.46059277  0.97040390    -0.15700
C1329       C  0.18878021  0.39463991  0.95820130     0.14400
C1330       C  0.17816725  0.38524630  0.97474053     0.01300
C1331       C  0.15709890  0.38907629  0.99304356     0.16300
C1332       C  0.14516799  0.40187807  0.99398546     0.25700
C1333       C  0.15455381  0.41108186  0.97688487    -0.40600
C1334       C  0.17703996  0.40751884  0.95931429     0.32800
C1335       C  0.18833678  0.37139470  0.97266428     0.01400
F1336       F  0.14753291  0.38032230  0.00970927    -0.12900
F1337       F  0.18566070  0.41623574  0.94232169    -0.13400
C1338       C  0.22195308  0.36803796  0.97331255     0.16300
C1339       C  0.23172379  0.35500435  0.97137692     0.25700
C1340       C  0.20799633  0.34498743  0.96870428    -0.40600
C1341       C  0.17422448  0.34834310  0.96836361     0.32700
C1342       C  0.16448959  0.36146519  0.97022544     0.14400
F1343       F  0.24538812  0.37739401  0.97622331    -0.12900
F1344       F  0.15072931  0.33901528  0.96554168    -0.13400
F1345       F  0.26458542  0.35220112  0.97253275    -0.15700
F1346       F  0.13179257  0.36453406  0.96908441    -0.14300
F1347       F  0.20897001  0.39115989  0.94024462    -0.14300
F1348       F  0.12337498  0.40520369  0.01109111    -0.15700
C1349       C  0.02947707  0.29889070  0.56731169     0.14400
C1350       C  0.04642686  0.30984535  0.57572939     0.01300
C1351       C  0.05808006  0.31926062  0.55959716     0.16300
C1352       C  0.54613524  0.31920950  0.53650959     0.25700
C1353       C  0.03281210  0.30732234  0.52724399    -0.40600
C1354       C  0.02282282  0.29761056  0.54341270     0.32800
C1355       C  0.05225011  0.31105367  0.60135845     0.01400
F1356       F  0.56696608  0.33158118  0.56862107    -0.12900
F1357       F  0.00644716  0.28679285  0.53609120    -0.13400
C1358       C  0.08444530  0.31013405  0.61039065     0.16300
C1359       C  0.08971723  0.30944370  0.63463365     0.25700
C1360       C  0.06278519  0.30969221  0.65050159    -0.40600
C1361       C  0.03058427  0.31120572  0.64139511     0.32700
C1362       C  0.02538644  0.31180939  0.61704049     0.14400
F1363       F  0.11078672  0.30930398  0.59567188    -0.12900
F1364       F  0.00401868  0.31160843  0.65594577    -0.13400
F1365       F  0.12137793  0.30840827  0.64250067    -0.15700
F1366       F  0.99399707  0.31287149  0.60867380    -0.14300
F1367       F  0.01942902  0.28933953  0.58234883    -0.14300
F1368       F  0.55596541  0.32882555  0.52155071    -0.15700
C1369       C  0.43121228  0.24048158  0.71850008     0.14400
C1370       C  0.46585258  0.23903856  0.71640976     0.01300
C1371       C  0.47889292  0.22644871  0.71314648     0.16300
C1372       C  0.45804843  0.21557399  0.71197111     0.25700
C1373       C  0.42331699  0.21689818  0.71432317    -0.40600
C1374       C  0.41018201  0.22953081  0.71761208     0.32800
C1375       C  0.99284144  0.24982309  0.72012172     0.01400
F1376       F  0.01646113  0.22380600  0.71476245    -0.12900
F1377       F  0.37701896  0.23133501  0.71975057    -0.13400
C1378       C  0.99070170  0.25854992  0.73904150     0.16300
C1379       C  0.01140887  0.26949089  0.74011603     0.25700
C1380       C  0.03541600  0.27176574  0.72267174    -0.40600
C1381       C  0.03850490  0.26280243  0.70421834     0.32700
C1382       C  0.01716653  0.25203027  0.70278544     0.14400
F1383       F  0.46575031  0.25643535  0.75539714    -0.12900
F1384       F  0.06086634  0.26488362  0.68682139    -0.13400
F1385       F  0.00800382  0.27789492  0.75831048    -0.15700
F1386       F  0.01948725  0.24402735  0.68393892    -0.14300
F1387       F  0.41764194  0.25254378  0.72108217    -0.14300
F1388       F  0.47231774  0.20365101  0.70911998    -0.15700
C1389       C  0.19878627  0.30940727  0.85510204     0.14400
C1390       C  0.16400821  0.30817120  0.85463346     0.01300
C1391       C  0.14701783  0.30712801  0.87603317     0.16300
C1392       C  0.16439303  0.30686081  0.89735565     0.25700
C1393       C  0.19939796  0.30763083  0.89791186    -0.40600
C1394       C  0.21628305  0.30920243  0.87647695     0.32800
C1395       C  0.14582124  0.30712233  0.83184463     0.01400
F1396       F  0.11352963  0.30594989  0.87630224    -0.12900
F1397       F  0.24976366  0.31026765  0.87610595    -0.13400
C1398       C  0.15401969  0.29707877  0.81619364     0.16300
C1399       C  0.13823234  0.29612501  0.79440165     0.25700
C1400       C  0.11360380  0.30519969  0.78755218    -0.40600
C1401       C  0.10432189  0.31496918  0.80364203     0.32700
C1402       C  0.12027915  0.31591223  0.82557445     0.14400
F1403       F  0.17743712  0.28808649  0.82208403    -0.12900
F1404       F  0.08094762  0.32398095  0.79777136    -0.13400
F1405       F  0.14740081  0.28628844  0.77987986    -0.15700
F1406       F  0.11161272  0.32571621  0.84031211    -0.14300
F1407       F  0.21587302  0.31079830  0.83473812    -0.14300
F1408       F  0.14665664  0.30596185  0.91753895    -0.15700
C1409       C  0.24884581  0.44215140  0.61134556     0.14400
C1410       C  0.26767660  0.43119741  0.60489479     0.01300
C1411       C  0.27963192  0.42273277  0.62255320     0.16300
C1412       C  0.27266736  0.42515732  0.64627516     0.25700
C1413       C  0.25360526  0.43611074  0.65274855    -0.40600
C1414       C  0.24184933  0.44458587  0.63495858     0.32800
C1415       C  0.27700011  0.42937141  0.57990621     0.01400
F1416       F  0.29784241  0.41205420  0.61677486    -0.12900
F1417       F  0.22420014  0.45546662  0.64042135    -0.13400
C1418       C  0.31024273  0.43060530  0.57322550     0.16300
C1419       C  0.31899567  0.43082591  0.54951866     0.25700
C1420       C  0.29464014  0.42984477  0.53180947    -0.40600
C1421       C  0.26151666  0.42775608  0.53853709     0.32700
C1422       C  0.25275965  0.42761948  0.56241818     0.14400
F1423       F  0.33415893  0.43231672  0.58968581    -0.12900
F1424       F  0.23743345  0.42647651  0.52208568    -0.13400
F1425       F  0.35147853  0.43227834  0.54393831    -0.15700
F1426       F  0.22049898  0.42608681  0.56849624    -0.14300
F1427       F  0.23811886  0.45076557  0.59474772    -0.14300
F1428       F  0.28387710  0.41661634  0.66281960    -0.15700
C1429       C  0.33728704  0.52002159  0.71074686     0.14400
C1430       C  0.34810452  0.50699686  0.71052070     0.01300
C1431       C  0.38228005  0.50432812  0.70986949     0.16300
C1432       C  0.40534112  0.51454865  0.71024827     0.25700
C1433       C  0.39457715  0.52764777  0.71121042    -0.40600
C1434       C  0.36017965  0.53024247  0.71109937     0.32800
C1435       C  0.32379156  0.49625405  0.71302767     0.01400
F1436       F  0.39329613  0.49178181  0.70914449    -0.12900
F1437       F  0.34844371  0.54266952  0.71243467    -0.13400
C1438       C  0.29901902  0.49422368  0.69605168     0.16300
C1439       C  0.27606372  0.48405197  0.69885736     0.25700
C1440       C  0.27772407  0.47577404  0.71864033    -0.40600
C1441       C  0.30208443  0.47803232  0.73578625     0.32700
C1442       C  0.32479017  0.48819352  0.73304504     0.14400
F1443       F  0.29785486  0.50178798  0.67639338    -0.12900
F1444       F  0.30403668  0.47029553  0.75520427    -0.13400
F1445       F  0.25357290  0.48181091  0.68162495    -0.15700
F1446       F  0.34778793  0.49021091  0.75003310    -0.14300
F1447       F  0.30444306  0.52283798  0.71182727    -0.14300
F1448       F  0.43812843  0.51159587  0.70989001    -0.15700
C1449       C  0.19723832  0.44042952  0.82868320     0.14400
C1450       C  0.16736214  0.44700688  0.83334552     0.01300
C1451       C  0.15109596  0.45346433  0.81476888     0.16300
C1452       C  0.16421254  0.45323090  0.79193889     0.25700
C1453       C  0.19398124  0.44645719  0.78707221    -0.40600
C1454       C  0.21040126  0.44014518  0.80589587     0.32800
C1455       C  0.15352341  0.44724016  0.85764319     0.01400
F1456       F  0.12263748  0.46017629  0.81881561    -0.12900
F1457       F  0.23895936  0.43343305  0.80227977    -0.13400
C1458       C  0.17168000  0.45287103  0.87599794     0.16300
C1459       C  0.15939458  0.45281937  0.89900362     0.25700
C1460       C  0.12848360  0.44706548  0.90436608    -0.40600
C1461       C  0.11019840  0.44148802  0.88583173     0.32700
C1462       C  0.12254470  0.44162919  0.86275272     0.14400
F1463       F  0.20148698  0.45849032  0.87161089    -0.12900
F1464       F  0.08049601  0.43573947  0.88999088    -0.13400
F1465       F  0.17833880  0.45819559  0.91608902    -0.15700
F1466       F  0.10462101  0.43592952  0.84545912    -0.14300
F1467       F  0.21337372  0.43397909  0.84619707    -0.14300
F1468       F  0.14760805  0.45967617  0.77463982    -0.15700
C1469       C  0.17224322  0.35668647  0.71378306     0.14400
C1470       C  0.15058346  0.36742997  0.71171598     0.01300
C1471       C  0.11649926  0.36526819  0.70983044     0.16300
C1472       C  0.10396391  0.35261193  0.71065171     0.25700
C1473       C  0.12533858  0.34175696  0.71349791    -0.40600
C1474       C  0.15973448  0.34390937  0.71455164     0.32800
C1475       C  0.16279939  0.38098239  0.71326582     0.01400
F1476       F  0.09511431  0.37550822  0.70819047    -0.12900
F1477       F  0.18114075  0.33374106  0.71708386    -0.13400
C1478       C  0.15745612  0.38991716  0.69475511     0.16300
C1479       C  0.16692560  0.40300389  0.69707145     0.25700
C1480       C  0.18202415  0.40724600  0.71786869    -0.40600
C1481       C  0.18709020  0.39831885  0.73639424     0.32700
C1482       C  0.17744006  0.38530373  0.73414651     0.14400
F1483       F  0.14371353  0.38587191  0.67430221    -0.12900
F1484       F  0.20141696  0.40224882  0.75672928    -0.13400
F1485       F  0.16296516  0.41133956  0.67862770    -0.15700
F1486       F  0.18186933  0.37694981  0.75251262    -0.14300
F1487       F  0.20542854  0.35860213  0.71535679    -0.14300
F1488       F  0.07065548  0.35107304  0.70891863    -0.15700
C1489       C  0.04844151  0.79804168  0.18558022     0.14400
C1490       C  0.03385384  0.80966413  0.17732832     0.01300
C1491       C  0.02535044  0.81946320  0.19349004     0.16300
C1492       C  0.03239272  0.81781880  0.21743372     0.25700
C1493       C  0.04824099  0.80637166  0.22553432    -0.40600
C1494       C  0.05565130  0.79641754  0.20936889     0.32800
C1495       C  0.02657827  0.81121337  0.15195057     0.01400
F1496       F  0.50843226  0.82966313  0.18506926    -0.12900
F1497       F  0.06996812  0.78504547  0.21656835    -0.13400
C1498       C  0.99385443  0.81307282  0.14439288     0.16300
C1499       C  0.98623751  0.81300500  0.12050592     0.25700
C1500       C  0.50921441  0.81033002  0.10269711    -0.40600
C1501       C  0.54073963  0.81500447  0.10913929     0.32700
C1502       C  0.05185725  0.80987843  0.13510337     0.14400
F1503       F  0.96890571  0.81426540  0.16020542    -0.12900
F1504       F  0.56273172  0.81898015  0.09257946    -0.13400
F1505       F  0.95413897  0.81470732  0.11399770    -0.15700
F1506       F  0.58087434  0.81957805  0.13869082    -0.14300
F1507       F  0.05543293  0.78815643  0.17056488    -0.14300
F1508       F  0.02505882  0.82765614  0.23245588    -0.15700
C1509       C  0.47083135  0.76486880  0.30138464     0.14400
C1510       C  0.48026258  0.75272595  0.29208609     0.01300
C1511       C  0.01250105  0.74976145  0.29065218     0.16300
C1512       C  0.03551353  0.75982214  0.29367975     0.25700
C1513       C  0.02495974  0.77244846  0.30001759    -0.40600
C1514       C  0.99096080  0.77450550  0.30459175     0.32800
C1515       C  0.45506269  0.74260368  0.28640383     0.01400
F1516       F  0.02360472  0.73771082  0.28455124    -0.12900
F1517       F  0.97954177  0.78637098  0.31148769    -0.13400
C1518       C  0.45464277  0.73688243  0.26399599     0.16300
C1519       C  0.43349015  0.72644691  0.25916801     0.25700
C1520       C  0.41147001  0.72179045  0.27634775    -0.40600
C1521       C  0.41003763  0.72810093  0.29816663     0.32700
C1522       C  0.43196206  0.73830932  0.30328509     0.14400
F1523       F  0.47525871  0.74123621  0.24684381    -0.12900
F1524       F  0.38935866  0.72367514  0.31521766    -0.13400
F1525       F  0.43516318  0.72062429  0.23784922    -0.15700
F1526       F  0.43195975  0.74341670  0.32521081    -0.14300
F1527       F  0.43856042  0.76744703  0.30621465    -0.14300
F1528       F  0.06800259  0.75724899  0.28962539    -0.15700
C1529       C  0.25233060  0.93926853  0.12727106     0.14400
C1530       C  0.27905869  0.93176435  0.11942528     0.01300
C1531       C  0.29831578  0.92472489  0.13575137     0.16300
C1532       C  0.29050065  0.92504698  0.15976119     0.25700
C1533       C  0.26315764  0.93237238  0.16764025    -0.40600
C1534       C  0.24439865  0.93958802  0.15105243     0.32800
C1535       C  0.28773147  0.93207133  0.09428331     0.01400
F1536       F  0.32481812  0.91766608  0.12841967    -0.12900
F1537       F  0.21852581  0.94719010  0.15781501    -0.13400
C1538       C  0.30490288  0.94283777  0.08522529     0.16300
C1539       C  0.31200774  0.94365925  0.06131578     0.25700
C1540       C  0.30193661  0.93367841  0.04582432    -0.40600
C1541       C  0.28407455  0.92298028  0.05495424     0.32700
C1542       C  0.27706457  0.92219352  0.07905063     0.14400
F1543       F  0.31472209  0.95262377  0.09963529    -0.12900
F1544       F  0.27396773  0.91317401  0.04072573    -0.13400
F1545       F  0.32862171  0.95433945  0.05338838    -0.15700
F1546       F  0.25963496  0.91186497  0.08752970    -0.14300
F1547       F  0.23394934  0.94638522  0.11179989    -0.14300
F1548       F  0.30927563  0.91805492  0.17514478    -0.15700
C1549       C  0.29320344  0.98743913  0.20975413     0.14400
C1550       C  0.31570371  0.99130067  0.22724517     0.01300
C1551       C  0.31629434  0.98446959  0.24872609     0.16300
C1552       C  0.29581856  0.97360435  0.25225940     0.25700
C1553       C  0.27401179  0.96950296  0.23450479    -0.40600
C1554       C  0.27243736  0.97666434  0.21338599     0.32800
C1555       C  0.33866968  0.00238174  0.22297602     0.01400
F1556       F  0.33689025  0.98828307  0.26622944    -0.12900
F1557       F  0.25259202  0.97265172  0.19559403    -0.13400
C1558       C  0.32603881  0.01484736  0.21780098     0.16300
C1559       C  0.34739857  0.02534860  0.21377349     0.25700
C1560       C  0.38215732  0.02365221  0.21490430    -0.40600
C1561       C  0.39477347  0.01109953  0.21999368     0.32700
C1562       C  0.37321448  0.00056861  0.22395720     0.14400
F1563       F  0.29281730  0.01694889  0.21729396    -0.12900
F1564       F  0.42793223  0.00897565  0.22109051    -0.13400
F1565       F  0.33374950  0.03727850  0.20948056    -0.15700
F1566       F  0.38607995  0.98853932  0.22850410    -0.14300
F1567       F  0.29250473  0.99372243  0.18869259    -0.14300
F1568       F  0.29763769  0.96694735  0.27292217    -0.15700
C1569       C  0.20702302  0.87408883  0.24435889     0.14400
C1570       C  0.17282818  0.87183729  0.24457983     0.01300
C1571       C  0.15108543  0.88199272  0.23807262     0.16300
C1572       C  0.16325357  0.89449949  0.23302293     0.25700
C1573       C  0.19747128  0.89703390  0.23438246    -0.40600
C1574       C  0.21928855  0.88652481  0.23924110     0.32800
C1575       C  0.15986340  0.85939009  0.25411432     0.01400
F1576       F  0.11790581  0.87989161  0.23746272    -0.12900
F1577       F  0.25256694  0.88833587  0.24019173    -0.13400
C1578       C  0.14011470  0.85955993  0.27435774     0.16300
C1579       C  0.12798882  0.84793423  0.28389381     0.25700
C1580       C  0.13541487  0.83585553  0.27337870    -0.40600
C1581       C  0.15618695  0.83564968  0.25353162     0.32700
C1582       C  0.16824690  0.84734778  0.24394942     0.14400
F1583       F  0.13279669  0.87103645  0.28505547    -0.12900
F1584       F  0.16358966  0.82421547  0.24273969    -0.13400
F1585       F  0.10879560  0.84853542  0.30341714    -0.15700
F1586       F  0.18730087  0.84695355  0.22434713    -0.14300
F1587       F  0.22851520  0.86444634  0.25065381    -0.14300
F1588       F  0.14137213  0.90421624  0.22796267    -0.15700
C1589       C  0.25437920  0.80552069  0.64205322     0.14400
C1590       C  0.28584714  0.81002679  0.64840555     0.01300
C1591       C  0.30824046  0.81381422  0.63077810     0.16300
C1592       C  0.29935936  0.81296650  0.60705943     0.25700
C1593       C  0.26792544  0.80820664  0.60058034    -0.40600
C1594       C  0.24543975  0.80462293  0.61847063     0.32800
C1595       C  0.29579460  0.80982079  0.67338828     0.01400
F1596       F  0.33880448  0.81826847  0.63656750    -0.12900
F1597       F  0.21483739  0.79997384  0.61330224    -0.13400
C1598       C  0.32138110  0.80149216  0.68080173     0.16300
C1599       C  0.32901393  0.80024644  0.70459196     0.25700
C1600       C  0.31110774  0.80733676  0.72163866    -0.40600
C1601       C  0.28585803  0.81592019  0.71404628     0.32700
C1602       C  0.27825270  0.81711146  0.69012332     0.14400
F1603       F  0.33828420  0.79416607  0.66500605    -0.12900
F1604       F  0.26834712  0.82311142  0.72968222    -0.13400
F1605       F  0.35382520  0.79192508  0.71080318    -0.15700
F1606       F  0.25364618  0.82536049  0.68324156    -0.14300
F1607       F  0.23265194  0.80148029  0.65875638    -0.14300
F1608       F  0.32168900  0.81667548  0.59053011    -0.15700
C1609       C  0.30588575  0.74964840  0.55501641     0.14400
C1610       C  0.33043611  0.74752156  0.53796249     0.01300
C1611       C  0.33184479  0.75570709  0.51815607     0.16300
C1612       C  0.31017724  0.76625394  0.51589686     0.25700
C1613       C  0.28661006  0.76883754  0.53343083    -0.40600
C1614       C  0.28401459  0.76027078  0.55275995     0.32800
C1615       C  0.35524416  0.73697517  0.54059408     0.01400
F1616       F  0.35470313  0.75358503  0.50112617    -0.12900
F1617       F  0.26192078  0.76267793  0.57015833    -0.13400
C1618       C  0.34569722  0.72385047  0.53904414     0.16300
C1619       C  0.36967123  0.71397033  0.53813645     0.25700
C1620       C  0.40373614  0.71708301  0.53878766    -0.40600
C1621       C  0.41308167  0.73025043  0.54133425     0.32700
C1622       C  0.38902945  0.74008891  0.54224809     0.14400
F1623       F  0.31318453  0.72066366  0.53713312    -0.12900
F1624       F  0.44549759  0.73365996  0.54265120    -0.13400
F1625       F  0.35943049  0.70143372  0.53544116    -0.15700
F1626       F  0.39871241  0.75274086  0.54422928    -0.14300
F1627       F  0.30419427  0.74184097  0.57433682    -0.14300
F1628       F  0.31271770  0.77415214  0.49672584    -0.15700
C1629       C  0.20284355  0.81014173  0.42723106     0.14400
C1630       C  0.17800356  0.80105270  0.42177621     0.01300
C1631       C  0.16970635  0.79137256  0.43829292     0.16300
C1632       C  0.18514505  0.79104303  0.46026959     0.25700
C1633       C  0.20924109  0.80042496  0.46617567    -0.40600
C1634       C  0.21835852  0.80984384  0.44923475     0.32800
C1635       C  0.16063060  0.80166033  0.39888880     0.01400
F1636       F  0.14660314  0.78221085  0.43308336    -0.12900
F1637       F  0.24108828  0.81916798  0.45431579    -0.13400
C1638       C  0.17808771  0.79940206  0.37806151     0.16300
C1639       C  0.16171674  0.79970622  0.35644365     0.25700
C1640       C  0.12741086  0.80235882  0.35517240    -0.40600
C1641       C  0.11004861  0.80482229  0.37611210     0.32700
C1642       C  0.12651288  0.80438900  0.39778699     0.14400
F1643       F  0.21101888  0.79669489  0.37870304    -0.12900
F1644       F  0.07707853  0.80743763  0.37570070    -0.13400
F1645       F  0.17972053  0.79759810  0.33670787    -0.15700
F1646       F  0.10922941  0.80675837  0.41774292    -0.14300
F1647       F  0.21120498  0.81961088  0.41152380    -0.14300
F1648       F  0.17634902  0.78154980  0.47581370    -0.15700
C1649       C  0.03776870  0.91433700  0.57993303     0.14400
C1650       C  0.04249801  0.92477021  0.59559982     0.01300
C1651       C  0.05211930  0.93701186  0.58658940     0.16300
C1652       C  0.05791619  0.93872238  0.56260834     0.25700
C1653       C  0.05362981  0.92829027  0.54693209    -0.40600
C1654       C  0.04306832  0.91610872  0.55577118     0.32800
C1655       C  0.03620663  0.92325332  0.62120415     0.01400
F1656       F  0.05534130  0.94744320  0.60102586    -0.12900
F1657       F  0.03922644  0.90577443  0.54118941    -0.13400
C1658       C  0.06033715  0.92698499  0.63774386     0.16300
C1659       C  0.05260599  0.92756231  0.66171227     0.25700
C1660       C  0.02061646  0.92439211  0.66954388    -0.40600
C1661       C  0.49898609  0.91975039  0.65364597     0.32700
C1662       C  0.00493480  0.91926969  0.62925678     0.14400
F1663       F  0.09113001  0.93048496  0.63055511    -0.12900
F1664       F  0.46926028  0.91502720  0.66086029    -0.13400
F1665       F  0.07572179  0.93201487  0.67699186    -0.15700
F1666       F  0.98109859  0.91557870  0.61385170    -0.14300
F1667       F  0.02886039  0.90234792  0.58808345    -0.14300
F1668       F  0.06737331  0.95069145  0.55466862    -0.15700
C1669       C  0.00604965  0.98607258  0.47727056     0.14400
C1670       C  0.47443745  0.98323170  0.47350065     0.01300
C1671       C  0.46501256  0.97029762  0.46899509     0.16300
C1672       C  0.98490844  0.96039292  0.47011418     0.25700
C1673       C  0.01899424  0.96289969  0.47327910    -0.40600
C1674       C  0.02931037  0.97590413  0.47672952     0.32800
C1675       C  0.44896914  0.99366997  0.47506534     0.01400
F1676       F  0.43259687  0.96717948  0.46614423    -0.12900
F1677       F  0.06180820  0.97881876  0.47977510    -0.13400
C1678       C  0.42627528  0.99575049  0.45662608     0.16300
C1679       C  0.40302560  0.00588950  0.45782305     0.25700
C1680       C  0.40266957  0.01430932  0.47718426    -0.40600
C1681       C  0.42464474  0.01199714  0.49592258     0.32700
C1682       C  0.44730044  0.00166632  0.49500894     0.14400
F1683       F  0.42776789  0.98840865  0.43688995    -0.12900
F1684       F  0.42460212  0.01993178  0.51494045    -0.13400
F1685       F  0.38262985  0.00810109  0.43924913    -0.15700
F1686       F  0.46787610  0.99955529  0.51352496    -0.14300
F1687       F  0.01674463  0.99852938  0.48028734    -0.14300
F1688       F  0.97353957  0.94805053  0.46687945    -0.15700
C1689       C  0.19753077  0.93105501  0.34287244     0.14400
C1690       C  0.16342912  0.93375448  0.34490312     0.01300
C1691       C  0.14515634  0.93654493  0.32453760     0.16300
C1692       C  0.16062335  0.93686954  0.30262550     0.25700
C1693       C  0.19502314  0.93450229  0.30047341    -0.40600
C1694       C  0.21319110  0.93140145  0.32088017     0.32800
C1695       C  0.14706457  0.93406894  0.36826743     0.01400
F1696       F  0.11226862  0.93925205  0.32587830    -0.12900
F1697       F  0.24611092  0.92878673  0.31965524    -0.13400
C1698       C  0.15858151  0.94259979  0.38563554     0.16300
C1699       C  0.14358326  0.94292925  0.40774521     0.25700
C1700       C  0.11643861  0.93473853  0.41302605    -0.40600
C1701       C  0.10431192  0.92645648  0.39530276     0.32700
C1702       C  0.11952024  0.92611087  0.37319791     0.14400
F1703       F  0.18423771  0.95078711  0.38106311    -0.12900
F1704       F  0.07824665  0.91840879  0.39945611    -0.13400
F1705       F  0.15583928  0.95129693  0.42396120    -0.15700
F1706       F  0.10782331  0.91774058  0.35677432    -0.14300
F1707       F  0.21561597  0.92795048  0.36222668    -0.14300
F1708       F  0.14154209  0.93936090  0.28346345    -0.15700
C1709       C  0.14602808  0.87753063  0.48813404     0.14400
C1710       C  0.16242078  0.87701780  0.50985327     0.01300
C1711       C  0.16764550  0.88860447  0.52241738     0.16300
C1712       C  0.15550374  0.90049786  0.51378243     0.25700
C1713       C  0.13762853  0.90090173  0.49261246    -0.40600
C1714       C  0.13357289  0.88937023  0.47962267     0.32800
C1715       C  0.17494176  0.86441627  0.51891687     0.01400
F1716       F  0.18330583  0.88830047  0.54351146    -0.12900
F1717       F  0.11702125  0.88953436  0.45885687    -0.13400
C1718       C  0.20894829  0.86273338  0.52262588     0.16300
C1719       C  0.22153953  0.85049505  0.52871182     0.25700
C1720       C  0.20031435  0.83959242  0.53082854    -0.40600
C1721       C  0.16593243  0.84148266  0.52851167     0.32700
C1722       C  0.15335579  0.85382963  0.52257427     0.14400
F1723       F  0.23026753  0.87280436  0.51906452    -0.12900
F1724       F  0.14460115  0.83131866  0.53086276    -0.13400
F1725       F  0.25478488  0.84928333  0.53166459    -0.15700
F1726       F  0.12017914  0.85540065  0.51979141    -0.14300
F1727       F  0.14200695  0.86653606  0.47520920    -0.14300
F1728       F  0.15925531  0.91143041  0.52690083    -0.15700
O1729       O  0.58228066  0.92858317  0.44245446    -0.70100
O1730       O  0.55236455  0.92400766  0.50577959    -0.70300
O1731       O  0.53761794  0.94057925  0.47031560    -0.70200
O1732       O  0.59574130  0.91201964  0.47784181    -0.70200
O1733       O  0.63300308  0.92483593  0.49268955    -0.70100
O1734       O  0.57661964  0.95401235  0.48006182    -0.70100
O1735       O  0.58840730  0.93838213  0.51703960    -0.70100
O1736       O  0.62238396  0.94063824  0.45525965    -0.70300
V1737       V  0.56767696  0.92658922  0.47423939     1.35200
V1738       V  0.60444177  0.93924196  0.48589636     1.35200
C1739       C  0.60832177  0.93509523  0.43819561     0.79200
C1740       C  0.56550689  0.93050200  0.52222757     0.79200
C1741       C  0.54678442  0.95216652  0.47405406     0.79100
C1742       C  0.62336060  0.91340017  0.48779587     0.79100
O1743       O  0.74637555  0.80789714  0.49649232    -0.70100
O1744       O  0.77577716  0.81020902  0.56014471    -0.70300
O1745       O  0.78242407  0.79270055  0.52551312    -0.70200
O1746       O  0.74121016  0.82538079  0.53087484    -0.70200
O1747       O  0.69458971  0.81623847  0.54017807    -0.70100
O1748       O  0.73892920  0.78302610  0.53962816    -0.70100
O1749       O  0.72902400  0.80193952  0.57144710    -0.70100
O1750       O  0.70310508  0.79725556  0.50835815    -0.70300
V1751       V  0.76059544  0.80882370  0.52846693     1.35200
V1752       V  0.71724034  0.79974518  0.53967044     1.35200
C1753       C  0.71934841  0.80223046  0.49162381     0.79200
C1754       C  0.75666360  0.80683168  0.57674943     0.79200
C1755       C  0.76848034  0.78232409  0.53215498     0.79100
C1756       C  0.71106553  0.82654438  0.53598997     0.79100
O1757       O  0.74595093  0.93098397  0.27345611    -0.70100
O1758       O  0.77297993  0.93020675  0.20889309    -0.70300
O1759       O  0.77703841  0.94770423  0.24391145    -0.70200
O1760       O  0.74363587  0.91354156  0.23879009    -0.70200
O1761       O  0.69436694  0.92122220  0.23232845    -0.70100
O1762       O  0.73143422  0.95560316  0.22931855    -0.70100
O1763       O  0.72319284  0.93598398  0.19904939    -0.70100
O1764       O  0.70101925  0.94107699  0.26261450    -0.70300
V1765       V  0.75910433  0.93078898  0.24109608     1.35200
V1766       V  0.71333545  0.93834594  0.23104697     1.35200
C1767       C  0.71858450  0.93630338  0.27886076     0.79200
C1768       C  0.75191368  0.93263141  0.19284118     0.79200
C1769       C  0.76085374  0.95741970  0.23638310     0.79100
C1770       C  0.71324628  0.91143754  0.23567103     0.79100
O1771       O  0.58539478  0.80902821  0.32691763    -0.70100
O1772       O  0.55179412  0.81169673  0.26432806    -0.70300
O1773       O  0.54077903  0.79557148  0.30097034    -0.70200
O1774       O  0.59509208  0.82504376  0.29023958    -0.70200
O1775       O  0.63377649  0.81255822  0.27620900    -0.70100
O1776       O  0.58068980  0.78274403  0.29023808    -0.70100
O1777       O  0.58994800  0.79824057  0.25281266    -0.70100
O1778       O  0.62578059  0.79707195  0.31407901    -0.70300
V1779       V  0.56896366  0.81004835  0.29548177     1.35200
V1780       V  0.60679049  0.79785687  0.28371928     1.35200
C1781       C  0.61231561  0.80300864  0.33094913     0.79200
C1782       C  0.56561199  0.80549927  0.24779599     0.79200
C1783       C  0.55092669  0.78412658  0.29685912     0.79100
C1784       C  0.62303745  0.82392046  0.28057900     0.79100
O1785       O  0.73467359  0.44023593  0.75827622    -0.70100
O1786       O  0.76211873  0.43492359  0.69477910    -0.70300
O1787       O  0.77193561  0.45360171  0.72713295    -0.70200
O1788       O  0.72634552  0.42160302  0.72626659    -0.70200
O1789       O  0.68196305  0.43123875  0.71316017    -0.70100
O1790       O  0.72819957  0.46392352  0.71466370    -0.70100
O1791       O  0.71819218  0.44521650  0.68269301    -0.70100
O1792       O  0.69046752  0.45008197  0.74568595    -0.70300
V1793       V  0.74791759  0.43784551  0.72637538     1.35200
V1794       V  0.70550785  0.44746896  0.71438679     1.35200
C1795       C  0.70725840  0.44573742  0.76282452     0.79200
C1796       C  0.74440924  0.43905053  0.67786304     0.79200
C1797       C  0.75843700  0.46415920  0.72073134     0.79100
C1798       C  0.69681937  0.42082543  0.71934779     0.79100
O1799       O  0.57255790  0.31025906  0.75752758    -0.70100
O1800       O  0.54411199  0.31268828  0.69305753    -0.70300
O1801       O  0.53673039  0.29499534  0.72824494    -0.70200
O1802       O  0.57788570  0.32787857  0.72262377    -0.70200
O1803       O  0.62452323  0.31875926  0.71337683    -0.70100
O1804       O  0.58084921  0.28542660  0.71492546    -0.70100
O1805       O  0.59112834  0.30422739  0.68271736    -0.70100
O1806       O  0.61624093  0.29984839  0.74589024    -0.70300
V1807       V  0.55861857  0.31122602  0.72520608     1.35200
V1808       V  0.60228246  0.30218931  0.71453888     1.35200
C1809       C  0.60000490  0.30477373  0.76253857     0.79200
C1810       C  0.56394079  0.30933039  0.67683224     0.79200
C1811       C  0.55098250  0.28464930  0.72177905     0.79100
C1812       C  0.60788887  0.32910298  0.71703034     0.79100
O1813       O  0.58955135  0.43902555  0.93471564    -0.70100
O1814       O  0.56436445  0.43543211  0.99925078    -0.70300
O1815       O  0.55119855  0.45269603  0.96492444    -0.70200
O1816       O  0.60106086  0.42168339  0.96938439    -0.70200
O1817       O  0.64534220  0.43276304  0.97781962    -0.70100
O1818       O  0.59292910  0.46408230  0.97710481    -0.70100
O1819       O  0.60877623  0.44587212  0.00931474    -0.70100
O1820       O  0.63089377  0.45107811  0.94537132    -0.70300
V1821       V  0.57736862  0.43747552  0.96716942     1.35200
V1822       V  0.61868398  0.44827717  0.97712301     1.35200
C1823       C  0.61515871  0.44550840  0.92908572     0.79200
C1824       C  0.58286107  0.43985538  0.01535023     0.79200
C1825       C  0.56252490  0.46354899  0.97151227     0.79100
C1826       C  0.63140374  0.42185027  0.97437396     0.79100
O1827       O  0.74363783  0.31010511  0.92391360    -0.70100
O1828       O  0.77956720  0.31241609  0.98640032    -0.70300
O1829       O  0.78136332  0.29437951  0.95200882    -0.70200
O1830       O  0.74420834  0.32796976  0.95801812    -0.70200
O1831       O  0.69743615  0.31970474  0.96940165    -0.70100
O1832       O  0.73849461  0.28578178  0.96900230    -0.70100
O1833       O  0.73268912  0.30528611  0.99970327    -0.70100
O1834       O  0.70099310  0.30001092  0.93829277    -0.70300
V1835       V  0.76138388  0.31099849  0.95523316     1.35200
V1836       V  0.71822435  0.30280401  0.96870901     1.35200
C1837       C  0.71556136  0.30479970  0.92066786     0.79200
C1838       C  0.76128766  0.30957539  0.00386739     0.79200
C1839       C  0.76754997  0.28444824  0.96078826     0.79100
C1840       C  0.71490287  0.32971269  0.96481516     0.79100
O1841       O  0.71063308  0.18090940  0.51043785    -0.70100
O1842       O  0.67762140  0.17819198  0.44703206    -0.70300
O1843       O  0.71551405  0.16357958  0.47557347    -0.70200
O1844       O  0.67076158  0.19551940  0.48215472    -0.70200
O1845       O  0.71353211  0.20605731  0.46905752    -0.70100
O1846       O  0.75926048  0.17353796  0.46252237    -0.70100
O1847       O  0.72120780  0.18855227  0.43490823    -0.70100
O1848       O  0.75334830  0.19132533  0.49700130    -0.70300
V1849       V  0.69444034  0.17978678  0.47863054     1.35200
V1850       V  0.73601747  0.18968613  0.46624644     1.35200
C1851       C  0.73826543  0.18644117  0.51435744     0.79200
C1852       C  0.69432331  0.18292444  0.43007331     0.79200
C1853       C  0.74451424  0.16297110  0.46763787     0.79100
C1854       C  0.68368197  0.20619214  0.47597252     0.79100
O1855       O  0.86247571  0.05437133  0.50725127    -0.70100
O1856       O  0.89725244  0.05527836  0.44466017    -0.70300
O1857       O  0.86129643  0.07122030  0.47099379    -0.70200
O1858       O  0.89989064  0.03817229  0.48107103    -0.70200
O1859       O  0.85561767  0.02868234  0.46782993    -0.70100
O1860       O  0.81640039  0.06222170  0.45794867    -0.70100
O1861       O  0.85253160  0.04584517  0.43218951    -0.70100
O1862       O  0.81808760  0.04511428  0.49396534    -0.70300
V1863       V  0.87940814  0.05451255  0.47581138     1.35200
V1864       V  0.83650912  0.04559711  0.46336560     1.35200
C1865       C  0.83367467  0.04991938  0.51110858     0.79200
C1866       C  0.88007276  0.05108034  0.42764495     0.79200
C1867       C  0.83286992  0.07246965  0.46217167     0.79100
C1868       C  0.88490642  0.02782440  0.47566503     0.79100
O1869       O  0.69566673  0.05589111  0.67533029    -0.70100
O1870       O  0.66685249  0.05960573  0.73904930    -0.70300
O1871       O  0.70568665  0.07307236  0.70930583    -0.70200
O1872       O  0.65521674  0.04249914  0.70467199    -0.70200
O1873       O  0.69607605  0.03081347  0.71790060    -0.70100
O1874       O  0.74892815  0.06183845  0.71999202    -0.70100
O1875       O  0.71025245  0.04875877  0.75034859    -0.70100
O1876       O  0.73636087  0.04372967  0.68741791    -0.70300
V1877       V  0.68162783  0.05749631  0.70728962     1.35200
V1878       V  0.72208935  0.04645964  0.71864250     1.35200
C1879       C  0.72181003  0.04949373  0.67066693     0.79200
C1880       C  0.68422321  0.05489777  0.75567346     0.79200
C1881       C  0.73585046  0.07276982  0.71479160     0.79100
C1882       C  0.66601216  0.03155587  0.71145956     0.79100
O1883       O  0.88043953  0.18023156  0.67787323    -0.70100
O1884       O  0.90842970  0.17578063  0.74215508    -0.70300
O1885       O  0.87257727  0.16211474  0.71147394    -0.70200
O1886       O  0.91846522  0.19387542  0.70834922    -0.70200
O1887       O  0.87597006  0.20435153  0.72188367    -0.70100
O1888       O  0.82733728  0.17203492  0.72145634    -0.70100
O1889       O  0.86280086  0.18513210  0.75317850    -0.70100
O1890       O  0.83829493  0.19137662  0.69014818    -0.70300
V1891       V  0.89417697  0.17825826  0.71013487     1.35200
V1892       V  0.85196067  0.18809315  0.72138498     1.35200
C1893       C  0.85379600  0.18640435  0.67318906     0.79200
C1894       C  0.88923623  0.17928555  0.75865044     0.79200
C1895       C  0.84245987  0.16144121  0.71687691     0.79100
C1896       C  0.90608988  0.20445976  0.71539977     0.79100
O1897       O  0.87513283  0.56468196  0.01526640    -0.70100
O1898       O  0.90766088  0.56835642  0.95224383    -0.70300
O1899       O  0.86900339  0.58243621  0.98065060    -0.70200
O1900       O  0.91526090  0.55057189  0.98714096    -0.70200
O1901       O  0.87448016  0.54026310  0.97075479    -0.70100
O1902       O  0.82417281  0.57200058  0.97125797    -0.70100
O1903       O  0.86211252  0.55961267  0.93976639    -0.70100
O1904       O  0.83523351  0.55264632  0.00212473    -0.70300
V1905       V  0.89104285  0.56628095  0.98361796     1.35200
V1906       V  0.84984248  0.55627415  0.97121190     1.35200
C1907       C  0.84914652  0.55806096  0.01935667     0.79200
C1908       C  0.88934081  0.56508067  0.93514037     0.79200
C1909       C  0.83861152  0.58269880  0.97563747     0.79100
C1910       C  0.90350478  0.54005880  0.97929180     0.79100
O1911       O  0.70467697  0.68203657  0.07080718    -0.70100
O1912       O  0.67001354  0.67873023  0.00838330    -0.70300
O1913       O  0.71574704  0.66633364  0.03420742    -0.70200
O1914       O  0.65723591  0.69452572  0.04515330    -0.70200
O1915       O  0.69547600  0.70830360  0.03514134    -0.70100
O1916       O  0.75107732  0.67965791  0.01814885    -0.70100
O1917       O  0.70437356  0.69368035  0.99672641    -0.70100
O1918       O  0.74376644  0.69432954  0.05697310    -0.70300
V1919       V  0.68750515  0.68071537  0.03951097     1.35200
V1920       V  0.72299366  0.69377798  0.02714969     1.35200
C1921       C  0.73138179  0.68827089  0.07424708     0.79200
C1922       C  0.68187416  0.68561060  0.99177804     0.79200
C1923       C  0.74234032  0.66808350  0.02308997     0.79100
C1924       C  0.66599405  0.70624322  0.04182366     0.79100
O1925       O  0.71338019  0.56157810  0.18452852    -0.70100
O1926       O  0.68422727  0.56434446  0.24834643    -0.70300
O1927       O  0.72736846  0.57695175  0.22096722    -0.70200
O1928       O  0.66870025  0.54891116  0.21180691    -0.70200
O1929       O  0.70744866  0.53508773  0.22104813    -0.70100
O1930       O  0.76528609  0.56361986  0.23380141    -0.70100
O1931       O  0.72105522  0.54992377  0.25856958    -0.70100
O1932       O  0.75289418  0.54869039  0.19608162    -0.70300
V1933       V  0.69908470  0.56263759  0.21654886     1.35200
V1934       V  0.73591961  0.54955044  0.22705593     1.35200
C1935       C  0.73914675  0.55500902  0.17959835     0.79200
C1936       C  0.69818534  0.55767896  0.26444505     0.79200
C1937       C  0.75573960  0.57521281  0.22966949     0.79100
C1938       C  0.67764206  0.53722017  0.21512389     0.79100
O1939       O  0.87785382  0.68305928  0.23534371    -0.70100
O1940       O  0.91042453  0.67967907  0.29832538    -0.70300
O1941       O  0.87903075  0.66415394  0.26800640    -0.70200
O1942       O  0.91072209  0.69868789  0.26551541    -0.70200
O1943       O  0.86574335  0.70566306  0.28217089    -0.70100
O1944       O  0.83042266  0.67110913  0.27821637    -0.70100
O1945       O  0.86164226  0.68498286  0.31106846    -0.70100
O1946       O  0.83293919  0.69177280  0.24903291    -0.70300
V1947       V  0.89366489  0.68156755  0.26700089     1.35200
V1948       V  0.84853324  0.68830262  0.27980557     1.35200
C1949       C  0.84938219  0.68791705  0.23152778     0.79200
C1950       C  0.89087850  0.68135026  0.31548090     0.79200
C1951       C  0.84933011  0.66165151  0.27298656     0.79100
C1952       C  0.89468153  0.70795434  0.27458471     0.79100
O1953       O  0.99587873  0.93016377  0.77380050    -0.70100
O1954       O  0.52939783  0.92662422  0.71185429    -0.70300
O1955       O  0.52891226  0.94615932  0.74311137    -0.70200
O1956       O  0.99801556  0.91074169  0.74267273    -0.70200
O1957       O  0.94922119  0.91747779  0.73207047    -0.70100
O1958       O  0.98464629  0.95191505  0.72488377    -0.70100
O1959       O  0.98078226  0.93050748  0.69791345    -0.70100
O1960       O  0.95143597  0.93879748  0.75897652    -0.70300
V1961       V  0.01235461  0.92817060  0.74245991     1.35200
V1962       V  0.96736914  0.93460392  0.72871890     1.35200
C1963       C  0.96742962  0.93518389  0.77694573     0.79200
C1964       C  0.01017983  0.92694558  0.69403302     0.79200
C1965       C  0.51343679  0.95527389  0.73294109     0.79100
C1966       C  0.96817962  0.90817881  0.73828780     0.79100
O1967       O  0.83244756  0.80760167  0.82819567    -0.70100
O1968       O  0.80473077  0.81129686  0.76437309    -0.70300
O1969       O  0.78804209  0.79554982  0.80028713    -0.70200
O1970       O  0.84796831  0.82337688  0.79242937    -0.70200
O1971       O  0.88583026  0.80994265  0.78013702    -0.70100
O1972       O  0.82650476  0.78166425  0.79100250    -0.70100
O1973       O  0.84172608  0.79702583  0.75427724    -0.70100
O1974       O  0.87154803  0.79448275  0.81702950    -0.70300
V1975       V  0.81898870  0.80916373  0.79617220     1.35200
V1976       V  0.85564831  0.79600931  0.78589881     1.35200
C1977       C  0.85753903  0.80068540  0.83335331     0.79200
C1978       C  0.81884666  0.80480276  0.74833658     0.79200
C1979       C  0.79671566  0.78388209  0.79670635     0.79100
C1980       C  0.87667530  0.82151836  0.78445390     0.79100
O1981       O  0.82731601  0.92893611  0.94035736    -0.70100
O1982       O  0.79516956  0.92671639  0.00380199    -0.70300
O1983       O  0.78065372  0.94159728  0.96610342    -0.70200
O1984       O  0.83995903  0.91387371  0.97795811    -0.70200
O1985       O  0.87744954  0.92742960  0.99007157    -0.70100
O1986       O  0.81767818  0.95571822  0.97647809    -0.70100
O1987       O  0.83215589  0.94090996  0.01390893    -0.70100
O1988       O  0.86481995  0.94251628  0.95208742    -0.70300
V1989       V  0.81145482  0.92808677  0.97216229     1.35200
V1990       V  0.84731307  0.94140999  0.98275719     1.35200
C1991       C  0.85265183  0.93583658  0.93568887     0.79200
C1992       C  0.80883149  0.93343769  0.01979808     0.79200
C1993       C  0.78817402  0.95333887  0.97010715     0.79100
C1994       C  0.86821135  0.91574373  0.98667715     0.79100
O1995       O  0.98947810  0.80713420  0.99860095    -0.70100
O1996       O  0.51877344  0.81146588  0.06074192    -0.70300
O1997       O  0.52353711  0.79275915  0.02789166    -0.70200
O1998       O  0.98965013  0.82624069  0.03062341    -0.70200
O1999       O  0.94133210  0.81918747  0.04123809    -0.70100
O2000       O  0.97753670  0.78447753  0.04525761    -0.70100
O2001       O  0.97278632  0.80505323  0.07420481    -0.70100
O2002       O  0.94445359  0.79857967  0.01248321    -0.70300
V2003       V  0.00493964  0.80883241  0.03026974     1.35200
V2004       V  0.95992685  0.80192807  0.04304825     1.35200
C2005       C  0.96108684  0.80224293  0.99493256     0.79200
C2006       C  0.00165444  0.80893182  0.07872844     0.79200
C2007       C  0.00636628  0.78228049  0.03730421     0.79100
C2008       C  0.95983946  0.82869845  0.03544441     0.79100
O2009       O  0.95594341  0.56264734  0.68273830    -0.70100
O2010       O  0.92620708  0.56668303  0.74629911    -0.70300
O2011       O  0.96849867  0.57896378  0.71792294    -0.70200
O2012       O  0.91148122  0.55021843  0.71082847    -0.70200
O2013       O  0.95107596  0.53683928  0.72032345    -0.70100
O2014       O  0.50363079  0.56597947  0.73330017    -0.70100
O2015       O  0.96280579  0.55237449  0.75732918    -0.70100
O2016       O  0.49458760  0.55065490  0.69564123    -0.70300
V2017       V  0.94111160  0.56429958  0.71458382     1.35200
V2018       V  0.97842919  0.55173226  0.72617609     1.35200
C2019       C  0.98279513  0.55657116  0.67865267     0.79200
C2020       C  0.94044049  0.56042159  0.76281348     0.79200
C2021       C  0.49389659  0.57740092  0.72796241     0.79100
C2022       C  0.92107947  0.53862975  0.71444896     0.79100
O2023       O  0.62298305  0.68392157  0.73822292    -0.70100
O2024       O  0.65124955  0.67951183  0.80210461    -0.70300
O2025       O  0.61821502  0.66508143  0.77059378    -0.70200
O2026       O  0.65725231  0.69841210  0.76945189    -0.70200
O2027       O  0.61302499  0.70681327  0.78489763    -0.70100
O2028       O  0.57053867  0.67370298  0.77895994    -0.70100
O2029       O  0.60285435  0.68621084  0.81343278    -0.70100
O2030       O  0.57945778  0.69421154  0.75054885    -0.70300
V2031       V  0.63663570  0.68192786  0.77030167     1.35200
V2032       V  0.59234774  0.69012641  0.78175575     1.35200
C2033       C  0.59581029  0.68965641  0.73355112     0.79200
C2034       C  0.63111655  0.68175505  0.81870610     0.79200
C2035       C  0.58757345  0.66370316  0.77383593     0.79100
C2036       C  0.64263524  0.70819742  0.77796179     0.79100
O2037       O  0.62987988  0.56254486  0.51786659    -0.70100
O2038       O  0.66357094  0.56505898  0.45464012    -0.70300
O2039       O  0.63079096  0.58091168  0.48398498    -0.70200
O2040       O  0.66473079  0.54668382  0.48870569    -0.70200
O2041       O  0.62084609  0.53912481  0.47152190    -0.70100
O2042       O  0.58247814  0.57339978  0.47438383    -0.70100
O2043       O  0.61496330  0.55944797  0.44209337    -0.70100
O2044       O  0.58634613  0.55298153  0.50400591    -0.70300
V2045       V  0.64645314  0.56362705  0.48613444     1.35200
V2046       V  0.60200632  0.55632656  0.47333078     1.35200
C2047       C  0.60162595  0.55742637  0.52153812     0.79200
C2048       C  0.64406842  0.56304119  0.43749077     0.79200
C2049       C  0.60089468  0.58309262  0.47900178     0.79100
C2050       C  0.64984288  0.53719246  0.47948720     0.79100
O2051       O  0.96863328  0.68432292  0.56615084    -0.70100
O2052       O  0.93996185  0.67985956  0.50287082    -0.70300
O2053       O  0.98472428  0.66846613  0.53101877    -0.70200
O2054       O  0.92281312  0.69588889  0.53801502    -0.70200
O2055       O  0.96058713  0.71002553  0.52864220    -0.70100
O2056       O  0.52018644  0.68218485  0.51629570    -0.70100
O2057       O  0.97454998  0.69483660  0.49169824    -0.70100
O2058       O  0.00762857  0.69717466  0.55382609    -0.70300
V2059       V  0.95465344  0.68244623  0.53435583     1.35200
V2060       V  0.99011142  0.69583146  0.52301685     1.35200
C2061       C  0.99438423  0.69092399  0.57056670     0.79200
C2062       C  0.95258540  0.68657468  0.48641225     0.79200
C2063       C  0.01264183  0.67051844  0.52182545     0.79100
C2064       C  0.93087995  0.70764531  0.53432862     0.79100
O2065       O  0.82171097  0.43258360  0.42735668    -0.70100
O2066       O  0.78953384  0.42777818  0.49029750    -0.70300
O2067       O  0.78040521  0.44588387  0.45631583    -0.70200
O2068       O  0.82920188  0.41452328  0.46099717    -0.70200
O2069       O  0.87177237  0.42503383  0.47443240    -0.70100
O2070       O  0.82214973  0.45685154  0.46974219    -0.70100
O2071       O  0.83210656  0.43850024  0.50301176    -0.70100
O2072       O  0.86326261  0.44346036  0.44127689    -0.70300
V2073       V  0.80595558  0.43044124  0.45896087     1.35200
V2074       V  0.84644379  0.44078569  0.47181133     1.35200
C2075       C  0.84875868  0.43860108  0.42378972     0.79200
C2076       C  0.80610295  0.43215993  0.50748526     0.79200
C2077       C  0.79236284  0.45668708  0.46263062     0.79100
C2078       C  0.85862428  0.41433805  0.46834960     0.79100
O2079       O  0.00159216  0.30837293  0.42289374    -0.70100
O2080       O  0.53482741  0.31211311  0.48617501    -0.70300
O2081       O  0.54300749  0.29445615  0.45214245    -0.70200
O2082       O  0.99684130  0.32593259  0.45753808    -0.70200
O2083       O  0.95446680  0.31571139  0.47201628    -0.70100
O2084       O  0.00034769  0.28337290  0.46391194    -0.70100
O2085       O  0.99432342  0.30067806  0.49838165    -0.70100
O2086       O  0.95905231  0.29823342  0.43725640    -0.70300
V2087       V  0.01861656  0.30980260  0.45432499     1.35200
V2088       V  0.97784586  0.29968508  0.46750772     1.35200
C2089       C  0.97351930  0.30308241  0.41963076     0.79200
C2090       C  0.02106636  0.30655723  0.50257841     0.79200
C2091       C  0.53078685  0.28371626  0.45869072     0.79100
C2092       C  0.96837361  0.32639544  0.46646358     0.79100
O2093       O  0.99948821  0.43672562  0.26589921    -0.70100
O2094       O  0.53508132  0.43371927  0.20384822    -0.70300
O2095       O  0.53563211  0.45210024  0.23743455    -0.70200
O2096       O  0.99971793  0.41814032  0.23311416    -0.70200
O2097       O  0.95382392  0.42651319  0.21999072    -0.70100
O2098       O  0.99436587  0.46016955  0.21992014    -0.70100
O2099       O  0.98994820  0.44047305  0.18974701    -0.70100
O2100       O  0.95658607  0.44625859  0.25055338    -0.70300
V2101       V  0.01737501  0.43510292  0.23484397     1.35200
V2102       V  0.97452963  0.44323805  0.22044820     1.35200
C2103       C  0.97106220  0.44185147  0.26859026     0.79200
C2104       C  0.01851836  0.43591281  0.18624903     0.79200
C2105       C  0.52081893  0.46192343  0.22896459     0.79100
C2106       C  0.97043877  0.41652488  0.22609716     0.79100
O2107       O  0.83334635  0.30811117  0.25574048    -0.70100
O2108       O  0.80613126  0.31207815  0.19160351    -0.70300
O2109       O  0.79635694  0.29400232  0.22546169    -0.70200
O2110       O  0.84158025  0.32602311  0.22220983    -0.70200
O2111       O  0.88728749  0.31607400  0.21331916    -0.70100
O2112       O  0.83927315  0.28384107  0.21167509    -0.70100
O2113       O  0.85224174  0.30311885  0.18072137    -0.70100
O2114       O  0.87563175  0.29675070  0.24417259    -0.70300
V2115       V  0.82013377  0.30980661  0.22353818     1.35200
V2116       V  0.86275245  0.30009075  0.21268233     1.35200
C2117       C  0.85977480  0.30195683  0.26078756     0.79200
C2118       C  0.82525688  0.30857688  0.17511751     0.79200
C2119       C  0.80936645  0.28350928  0.21849027     0.79100
C2120       C  0.87217399  0.32660406  0.21814780     0.79100
O2121       O  0.59672835  0.05287265  0.00507186    -0.70100
O2122       O  0.63350363  0.05303529  0.94316050    -0.70300
O2123       O  0.59778275  0.06964838  0.96858800    -0.70200
O2124       O  0.63395838  0.03615416  0.97971641    -0.70200
O2125       O  0.59050051  0.02707637  0.96443117    -0.70100
O2126       O  0.55177120  0.06111197  0.95657661    -0.70100
O2127       O  0.58758584  0.04496353  0.92993922    -0.70100
O2128       O  0.55305726  0.04319510  0.99164531    -0.70300
V2129       V  0.61461806  0.05270458  0.97395304     1.35200
V2130       V  0.57152869  0.04420667  0.96103400     1.35200
C2131       C  0.56817754  0.04814401  0.00886137     0.79200
C2132       C  0.61611833  0.04940993  0.92582659     0.79200
C2133       C  0.56903297  0.07123489  0.96039802     0.79100
C2134       C  0.61935749  0.02594350  0.97305464     0.79100
O2135       O  0.94519551  0.17991893  0.01272346    -0.70100
O2136       O  0.91355680  0.17602316  0.94944591    -0.70300
O2137       O  0.95281578  0.16247191  0.97863251    -0.70200
O2138       O  0.90384503  0.19376835  0.98366318    -0.70200
O2139       O  0.94599296  0.20501586  0.97157591    -0.70100
O2140       O  0.49605371  0.17352313  0.96235465    -0.70100
O2141       O  0.95514627  0.18764363  0.93730427    -0.70100
O2142       O  0.49043931  0.19105938  0.99726497    -0.70300
V2143       V  0.92956335  0.17833456  0.98095368     1.35200
V2144       V  0.47177279  0.18947440  0.96696500     1.35200
C2145       C  0.97273895  0.18552200  0.01646194     0.79200
C2146       C  0.92958021  0.18113115  0.93256054     0.79200
C2147       C  0.48315114  0.16278628  0.96885458     0.79100
C2148       C  0.91582825  0.20470755  0.97780947     0.79100
O2149       O  0.93539165  0.05999789  0.17379300    -0.70100
O2150       O  0.90651085  0.06348489  0.23797562    -0.70300
O2151       O  0.94301456  0.07760548  0.20797117    -0.70200
O2152       O  0.89670340  0.04601110  0.20366355    -0.70200
O2153       O  0.93870554  0.03528947  0.21771393    -0.70100
O2154       O  0.48511432  0.06666424  0.21743155    -0.70100
O2155       O  0.95207151  0.05398281  0.24904004    -0.70100
O2156       O  0.47258723  0.04776735  0.18624669    -0.70300
V2157       V  0.92118523  0.06152674  0.20597953     1.35200
V2158       V  0.96305377  0.05139506  0.21737033     1.35200
C2159       C  0.96193022  0.05376195  0.16928442     0.79200
C2160       C  0.92548177  0.05964084  0.25449101     0.79200
C2161       C  0.97306294  0.07801876  0.21367764     0.79100
C2162       C  0.90856821  0.03541168  0.21131122     0.79100
O2163       O  0.62574869  0.18106911  0.17579512    -0.70100
O2164       O  0.65554103  0.17797053  0.23993190    -0.70300
O2165       O  0.61661314  0.16420829  0.21105916    -0.70200
O2166       O  0.66673241  0.19486825  0.20440684    -0.70200
O2167       O  0.62569509  0.20655325  0.21716754    -0.70100
O2168       O  0.57323776  0.17539346  0.22100358    -0.70100
O2169       O  0.61192736  0.18872141  0.25083570    -0.70100
O2170       O  0.58530044  0.19330781  0.18762004    -0.70300
V2171       V  0.64041992  0.17980908  0.20797113     1.35200
V2172       V  0.59991827  0.19082924  0.21891485     1.35200
C2173       C  0.59946852  0.18743760  0.17097733     0.79200
C2174       C  0.63785038  0.18252193  0.25644622     0.79200
C2175       C  0.58643338  0.16442048  0.21649229     0.79100
C2176       C  0.65564152  0.20585797  0.21046930     0.79100
C2177       C  0.53349913  0.10373895  0.22768749     0.14400
C2178       C  0.51809319  0.11492798  0.21817569     0.01300
C2179       C  0.98734512  0.11452927  0.20994016     0.16300
C2180       C  0.97328200  0.10222396  0.20700422     0.25700
C2181       C  0.48790811  0.09021071  0.21421516    -0.40600
C2182       C  0.51857086  0.09146494  0.22570636     0.32800
C2183       C  0.53514252  0.12766287  0.21834505     0.01400
F2184       F  0.97208532  0.12516106  0.20039861    -0.12900
F2185       F  0.53392195  0.08088721  0.23532272    -0.13400
C2186       C  0.56545033  0.12889756  0.20668944     0.16300
C2187       C  0.58166422  0.14086618  0.20595615     0.25700
C2188       C  0.56791430  0.15195398  0.21697911    -0.40600
C2189       C  0.53714349  0.15077102  0.22836799     0.32700
C2190       C  0.52085391  0.13868111  0.22902630     0.14400
F2191       F  0.57901847  0.11852101  0.19542276    -0.12900
F2192       F  0.52308923  0.16120088  0.23913512    -0.13400
F2193       F  0.61065901  0.14157749  0.19395717    -0.15700
F2194       F  0.49135964  0.13767414  0.24030027    -0.14300
F2195       F  0.56302487  0.10473843  0.23894622    -0.14300
F2196       F  0.94430284  0.10143763  0.19497757    -0.15700
C2197       C  0.49840234  0.17962435  0.07954680     0.14400
C2198       C  0.52924282  0.18592482  0.08145894     0.01300
C2199       C  0.02828247  0.19610546  0.06658406     0.16300
C2200       C  0.00940929  0.19635707  0.04596646     0.25700
C2201       C  0.49301489  0.18668978  0.03848169    -0.40600
C2202       C  0.48049596  0.17995045  0.05827616     0.32800
C2203       C  0.54778384  0.18621262  0.10411223     0.01400
F2204       F  0.04783972  0.20649669  0.07163283    -0.12900
F2205       F  0.45118285  0.17352464  0.05704572    -0.13400
C2206       C  0.57431495  0.17759766  0.10861924     0.16300
C2207       C  0.59212047  0.17823564  0.12988599     0.25700
C2208       C  0.58383808  0.18759077  0.14705069    -0.40600
C2209       C  0.55770942  0.19642008  0.14199350     0.32700
C2210       C  0.53996213  0.19569004  0.12088053     0.14400
F2211       F  0.58269310  0.16844507  0.09252061    -0.12900
F2212       F  0.54901910  0.20581447  0.15755850    -0.13400
F2213       F  0.61673698  0.16943922  0.13390967    -0.15700
F2214       F  0.51500667  0.20432465  0.11673068    -0.14300
F2215       F  0.48572305  0.17308658  0.09828394    -0.14300
F2216       F  0.01114503  0.20706138  0.03179668    -0.15700
C2217       C  0.50387847  0.04498313  0.05777554     0.14400
C2218       C  0.51985540  0.05093716  0.07681761     0.01300
C2219       C  0.55227111  0.05569877  0.07356389     0.16300
C2220       C  0.56825031  0.05456561  0.05177425     0.25700
C2221       C  0.55213170  0.04872365  0.03254297    -0.40600
C2222       C  0.51967684  0.04390469  0.03595394     0.32800
C2223       C  0.50334453  0.05159763  0.10029064     0.01400
F2224       F  0.56840568  0.06164366  0.09146387    -0.12900
F2225       F  0.00618968  0.03796458  0.01840747    -0.13400
C2226       C  0.51884828  0.04606424  0.12004674     0.16300
C2227       C  0.00862109  0.04744831  0.14226384     0.25700
C2228       C  0.97669260  0.05295702  0.14521207    -0.40600
C2229       C  0.45654556  0.05782586  0.12530542     0.32700
C2230       C  0.47194742  0.05746434  0.10312303     0.14400
F2231       F  0.05382866  0.04122942  0.11818643    -0.12900
F2232       F  0.42649299  0.06368554  0.12727456    -0.13400
F2233       F  0.02600946  0.04266918  0.16085374    -0.15700
F2234       F  0.45647882  0.06311143  0.08446532    -0.14300
F2235       F  0.97701823  0.03966819  0.06094754    -0.14300
F2236       F  0.59949758  0.05928348  0.04957274    -0.15700
C2237       C  0.51154284  0.10028876  0.95023805     0.14400
C2238       C  0.53379594  0.11079549  0.95217435     0.01300
C2239       C  0.56774572  0.10819468  0.95409192     0.16300
C2240       C  0.57916012  0.09532313  0.95581276     0.25700
C2241       C  0.55674738  0.08472123  0.95566437    -0.40600
C2242       C  0.52290278  0.08734009  0.95186292     0.32800
C2243       C  0.52145712  0.12426739  0.95592689     0.01400
F2244       F  0.58973842  0.11816533  0.95583551    -0.12900
F2245       F  0.00223859  0.07745299  0.95319164    -0.13400
C2246       C  0.50371883  0.12697922  0.97647099     0.16300
C2247       C  0.49270699  0.13963902  0.98106816     0.25700
C2248       C  0.49923255  0.14993116  0.96520537    -0.40600
C2249       C  0.51776032  0.14730797  0.94484096     0.32700
C2250       C  0.52885143  0.13454046  0.94024926     0.14400
F2251       F  0.99565409  0.11696461  0.99395274    -0.12900
F2252       F  0.52375271  0.15693462  0.92889775    -0.13400
F2253       F  0.97194390  0.14126429  0.00208392    -0.15700
F2254       F  0.54605017  0.13213516  0.92027319    -0.14300
F2255       F  0.97963684  0.10252449  0.95141432    -0.14300
F2256       F  0.61224047  0.09332208  0.95831693    -0.15700
C2257       C  0.77396353  0.25081779  0.19950717     0.14400
C2258       C  0.74555929  0.24991987  0.21375787     0.01300
C2259       C  0.73964331  0.25967086  0.23045799     0.16300
C2260       C  0.76103725  0.27031688  0.23244980     0.25700
C2261       C  0.78910533  0.27143072  0.21786444    -0.40600
C2262       C  0.79563182  0.26145421  0.20160346     0.32800
C2263       C  0.72246396  0.23868872  0.21177523     0.01400
F2264       F  0.71323334  0.25880670  0.24511719    -0.12900
F2265       F  0.82214739  0.26225272  0.18703811    -0.13400
C2266       C  0.73420068  0.22588498  0.21503738     0.16300
C2267       C  0.71242589  0.21530346  0.21431101     0.25700
C2268       C  0.67821221  0.21728376  0.21054402    -0.40600
C2269       C  0.66642457  0.23010312  0.20717980     0.32700
C2270       C  0.68840120  0.24071115  0.20764252     0.14400
F2271       F  0.76669551  0.22363947  0.21978723    -0.12900
F2272       F  0.63379544  0.23235157  0.20300387    -0.13400
F2273       F  0.72478981  0.20311554  0.21818832    -0.15700
F2274       F  0.67648556  0.25297041  0.20385628    -0.14300
F2275       F  0.78018471  0.24158703  0.18306594    -0.14300
F2276       F  0.75424450  0.27954275  0.24879692    -0.15700
C2277       C  0.91815259  0.38759029  0.20824658     0.14400
C2278       C  0.93274690  0.37748967  0.22150832     0.01300
C2279       C  0.95929548  0.38024309  0.23646994     0.16300
C2280       C  0.97119802  0.39298965  0.23821293     0.25700
C2281       C  0.95670600  0.40319381  0.22489690    -0.40600
C2282       C  0.93004910  0.40036176  0.20988071     0.32800
C2283       C  0.91842512  0.36429883  0.22112281     0.01400
F2284       F  0.97301727  0.37064275  0.24991756    -0.12900
F2285       F  0.91592022  0.40986376  0.19643338    -0.13400
C2286       C  0.93578885  0.35371653  0.21144385     0.16300
C2287       C  0.92114499  0.34132007  0.21058346     0.25700
C2288       C  0.88900293  0.33941019  0.21953624    -0.40600
C2289       C  0.87234669  0.35006021  0.22995196     0.32700
C2290       C  0.88692139  0.36234802  0.23062647     0.14400
F2291       F  0.96657515  0.35547726  0.20242842    -0.12900
F2292       F  0.84191968  0.34864380  0.23976984    -0.13400
F2293       F  0.93811521  0.33132025  0.20062714    -0.15700
F2294       F  0.87033757  0.37239310  0.24080777    -0.14300
F2295       F  0.89237778  0.38503114  0.19367495    -0.14300
F2296       F  0.99645285  0.39536470  0.25334445    -0.15700
C2297       C  0.90610611  0.30028442  0.37305230     0.14400
C2298       C  0.92361858  0.30253787  0.35220070     0.01300
C2299       C  0.95788160  0.30494869  0.35341652     0.16300
C2300       C  0.97432193  0.30517692  0.37519382     0.25700
C2301       C  0.95683679  0.30280313  0.39619172    -0.40600
C2302       C  0.92242806  0.30033989  0.39474115     0.32800
C2303       C  0.90609113  0.30213684  0.32922077     0.01400
F2304       F  0.97534811  0.30723225  0.33347154    -0.12900
F2305       F  0.90418401  0.29816273  0.41438122    -0.13400
C2306       C  0.88251698  0.31173699  0.32317821     0.16300
C2307       C  0.86633601  0.31141181  0.30134822     0.25700
C2308       C  0.87335656  0.30142517  0.28513051    -0.40600
C2309       C  0.89634736  0.29162304  0.29159608     0.32700
C2310       C  0.91249492  0.29199428  0.31337427     0.14400
F2311       F  0.87594777  0.32167614  0.33816191    -0.12900
F2312       F  0.90334980  0.28165004  0.27678278    -0.13400
F2313       F  0.84502525  0.32122793  0.29568120    -0.15700
F2314       F  0.93435588  0.28237717  0.31908415    -0.14300
F2315       F  0.87308153  0.29783884  0.37237997    -0.14300
F2316       F  0.00735993  0.30756790  0.37565168    -0.15700
C2317       C  0.90253310  0.44475152  0.31418049     0.14400
C2318       C  0.91860931  0.44077917  0.33482776     0.01300
C2319       C  0.95253952  0.43766973  0.33399542     0.16300
C2320       C  0.96996388  0.43825130  0.31267598     0.25700
C2321       C  0.95381503  0.44211777  0.29178315    -0.40600
C2322       C  0.91983518  0.44548739  0.29295478     0.32800
C2323       C  0.90002971  0.44027638  0.35730082     0.01400
F2324       F  0.96865360  0.43384197  0.35381129    -0.12900
F2325       F  0.90287217  0.44926899  0.27346508    -0.13400
C2326       C  0.87481414  0.43101584  0.36097706     0.16300
C2327       C  0.85724092  0.43066312  0.38225017     0.25700
C2328       C  0.86447607  0.43964485  0.40018849    -0.40600
C2329       C  0.88940716  0.44906353  0.39612383     0.32700
C2330       C  0.90696037  0.44933172  0.37497339     0.14400
F2331       F  0.86784805  0.42208700  0.34416542    -0.12900
F2332       F  0.89697812  0.45807233  0.41267029    -0.13400
F2333       F  0.83414524  0.42121117  0.38559486    -0.15700
F2334       F  0.93065886  0.45855352  0.37163746    -0.14300
F2335       F  0.86994082  0.44804728  0.31462386    -0.14300
F2336       F  0.00254509  0.43495753  0.31253449    -0.15700
C2337       C  0.90325648  0.35253697  0.47641386     0.14400
C2338       C  0.92228567  0.36397663  0.47422402     0.01300
C2339       C  0.95655055  0.36298632  0.47092509     0.16300
C2340       C  0.97154259  0.35075814  0.46901347     0.25700
C2341       C  0.95240264  0.33922882  0.47022871    -0.40600
C2342       C  0.91819431  0.34024321  0.47446038     0.32800
C2343       C  0.90614946  0.37691715  0.47317754     0.01400
F2344       F  0.97535521  0.37390288  0.46845609    -0.12900
F2345       F  0.89896935  0.32939492  0.47590349    -0.13400
C2346       C  0.91465839  0.38682386  0.48906839     0.16300
C2347       C  0.89998838  0.39921054  0.48721938     0.25700
C2348       C  0.87646744  0.40176795  0.46955928    -0.40600
C2349       C  0.86844380  0.39185539  0.45350346     0.32700
C2350       C  0.88323032  0.37957621  0.45527116     0.14400
F2351       F  0.93669535  0.38440742  0.50658903    -0.12900
F2352       F  0.84662427  0.39411189  0.43576654    -0.13400
F2353       F  0.90788512  0.40851778  0.50313633    -0.15700
F2354       F  0.87569431  0.37032648  0.43913475    -0.14300
F2355       F  0.87007608  0.35330657  0.47998396    -0.14300
F2356       F  0.00481621  0.35027547  0.46566164    -0.15700
C2357       C  0.68450973  0.50624260  0.45249085     0.14400
C2358       C  0.70876034  0.50263138  0.46906080     0.01300
C2359       C  0.71182307  0.50990545  0.48974788     0.16300
C2360       C  0.69148383  0.52076833  0.49363888     0.25700
C2361       C  0.66748098  0.52455344  0.47694510    -0.40600
C2362       C  0.66402339  0.51711816  0.45638797     0.32800
C2363       C  0.73021830  0.49103152  0.46532491     0.01400
F2364       F  0.73448037  0.50642017  0.50628458    -0.12900
F2365       F  0.64219991  0.52082113  0.43944980    -0.13400
C2366       C  0.76481573  0.49232278  0.46356975     0.16300
C2367       C  0.78515768  0.48121080  0.46214089     0.25700
C2368       C  0.77121196  0.46860734  0.46246641    -0.40600
C2369       C  0.73640280  0.46741254  0.46347819     0.32700
C2370       C  0.71621430  0.47850691  0.46489558     0.14400
F2371       F  0.77887220  0.50436712  0.46328649    -0.12900
F2372       F  0.72178275  0.45547232  0.46412899    -0.13400
F2373       F  0.81842882  0.48279361  0.46032603    -0.15700
F2374       F  0.68293135  0.47699348  0.46686852    -0.14300
F2375       F  0.68147490  0.49949282  0.43217048    -0.14300
F2376       F  0.69541252  0.52765519  0.51373910    -0.15700
C2377       C  0.04799361  0.63669067  0.52389286     0.14400
C2378       C  0.55935188  0.63551348  0.49841255     0.01300
C2379       C  0.56099608  0.64674039  0.48406950     0.16300
C2380       C  0.54858521  0.65868718  0.49218588     0.25700
C2381       C  0.53417646  0.65941978  0.51458445    -0.40600
C2382       C  0.03528931  0.64860758  0.53150894     0.32800
C2383       C  0.56858218  0.62249591  0.48942623     0.01400
F2384       F  0.57259771  0.64594393  0.46177163    -0.12900
F2385       F  0.02318054  0.64953999  0.55366660    -0.13400
C2386       C  0.54537666  0.61224811  0.48983708     0.16300
C2387       C  0.55522918  0.59942904  0.48496447     0.25700
C2388       C  0.58847775  0.59669772  0.47961303    -0.40600
C2389       C  0.61103080  0.60716854  0.47743662     0.32700
C2390       C  0.60114566  0.61994468  0.48236440     0.14400
F2391       F  0.01290820  0.61447716  0.49920511    -0.12900
F2392       F  0.64306938  0.60499536  0.47134301    -0.13400
F2393       F  0.03125826  0.58962107  0.48838655    -0.15700
F2394       F  0.62390386  0.62969298  0.48164157    -0.14300
F2395       F  0.04858286  0.62633399  0.53893401    -0.14300
F2396       F  0.54802105  0.66919139  0.47748465    -0.15700
C2397       C  0.53765300  0.69710229  0.68231645     0.14400
C2398       C  0.55200571  0.68992292  0.66405774     0.01300
C2399       C  0.58169775  0.68310677  0.66834650     0.16300
C2400       C  0.59656665  0.68330142  0.69064015     0.25700
C2401       C  0.58210086  0.69041195  0.70916204    -0.40600
C2402       C  0.55250742  0.69740764  0.70455056     0.32800
C2403       C  0.53651596  0.68989508  0.64035363     0.01400
F2404       F  0.59590690  0.67599140  0.65101071    -0.12900
F2405       F  0.04787029  0.70756765  0.71800134    -0.13400
C2406       C  0.55250479  0.69604780  0.62146370     0.16300
C2407       C  0.04300078  0.69481085  0.59726244     0.25700
C2408       C  0.00973193  0.69089555  0.59436145    -0.40600
C2409       C  0.49120963  0.68398742  0.61407335     0.32700
C2410       C  0.50566740  0.68391718  0.63652202     0.14400
F2411       F  0.58214283  0.70200596  0.62474640    -0.12900
F2412       F  0.46163387  0.67793697  0.61107224    -0.13400
F2413       F  0.06126934  0.69892084  0.57864795    -0.15700
F2414       F  0.48979431  0.67780650  0.65448001    -0.14300
F2415       F  0.01967298  0.70709307  0.67487772    -0.14300
F2416       F  0.62464935  0.67623293  0.69416030    -0.15700
C2417       C  0.00529974  0.56571904  0.61546375     0.14400
C2418       C  0.53323611  0.55765815  0.61187016     0.01300
C2419       C  0.54432602  0.54962946  0.63032823     0.16300
C2420       C  0.52688271  0.54898797  0.65154682     0.25700
C2421       C  0.49778584  0.55647402  0.65502113    -0.40600
C2422       C  0.98814201  0.56506372  0.63689563     0.32800
C2423       C  0.55119755  0.55775129  0.58897224     0.01400
F2424       F  0.57186557  0.54214639  0.62763522    -0.12900
F2425       F  0.96121570  0.57284197  0.63992716    -0.13400
C2426       C  0.58428981  0.56199805  0.58724262     0.16300
C2427       C  0.60110990  0.56174654  0.56558158     0.25700
C2428       C  0.58527327  0.55708555  0.54519954    -0.40600
C2429       C  0.55214373  0.55269379  0.54727420     0.32700
C2430       C  0.53545381  0.55308505  0.56877984     0.14400
F2431       F  0.60014220  0.56660909  0.60649740    -0.12900
F2432       F  0.53536339  0.54810761  0.52839740    -0.13400
F2433       F  0.63275952  0.56615016  0.56461113    -0.15700
F2434       F  0.50380466  0.54866868  0.56995262    -0.14300
F2435       F  0.99428909  0.57397057  0.59838445    -0.14300
F2436       F  0.53873113  0.54096644  0.66869796    -0.15700
C2437       C  0.02730509  0.61214390  0.72673849     0.14400
C2438       C  0.53518455  0.61350508  0.74955008     0.01300
C2439       C  0.53142697  0.60324698  0.76580486     0.16300
C2440       C  0.52008385  0.59106883  0.75841302     0.25700
C2441       C  0.51226552  0.58907847  0.73470571    -0.40600
C2442       C  0.01609600  0.60003787  0.71895137     0.32800
C2443       C  0.54741088  0.62627079  0.75736916     0.01400
F2444       F  0.53749938  0.60522528  0.78895006    -0.12900
F2445       F  0.00635731  0.59875034  0.69626228    -0.13400
C2446       C  0.52703325  0.63740805  0.75629675     0.16300
C2447       C  0.53945563  0.64959548  0.76289336     0.25700
C2448       C  0.57251893  0.65075746  0.77039860    -0.40600
C2449       C  0.59248671  0.63946154  0.77199612     0.32700
C2450       C  0.57997525  0.62733910  0.76552888     0.14400
F2451       F  0.99610393  0.63672104  0.74943842    -0.12900
F2452       F  0.62441959  0.64016625  0.77936839    -0.13400
F2453       F  0.02057316  0.66061403  0.76098611    -0.15700
F2454       F  0.60006225  0.61667426  0.76637542    -0.14300
F2455       F  0.02931279  0.62228702  0.71130101    -0.14300
F2456       F  0.51440564  0.58154250  0.77462212    -0.15700
C2457       C  0.74423783  0.98635767  0.97323199     0.14400
C2458       C  0.71085550  0.98273904  0.97044973     0.01300
C2459       C  0.70329076  0.96958120  0.96628085     0.16300
C2460       C  0.72847545  0.96017043  0.96534482     0.25700
C2461       C  0.76203606  0.96367454  0.96865881    -0.40600
C2462       C  0.76956946  0.97695044  0.97238797     0.32800
C2463       C  0.68399441  0.99267890  0.97220483     0.01400
F2464       F  0.67129410  0.96574289  0.96396148    -0.12900
F2465       F  0.80135714  0.98084867  0.97551222    -0.13400
C2466       C  0.66237647  0.99507132  0.95323891     0.16300
C2467       C  0.63912328  0.00528332  0.95422494     0.25700
C2468       C  0.63732703  0.01332068  0.97412383    -0.40600
C2469       C  0.65768147  0.01044475  0.99354156     0.32700
C2470       C  0.68060240  0.00017026  0.99265907     0.14400
F2471       F  0.66515459  0.98803569  0.93321226    -0.12900
F2472       F  0.65600708  0.01786534  0.01317878    -0.13400
F2473       F  0.62034077  0.00798559  0.93501181    -0.15700
F2474       F  0.70002662  0.99769212  0.01164655    -0.14300
F2475       F  0.75234932  0.99907211  0.97674678    -0.14300
F2476       F  0.71959229  0.94752143  0.96195063    -0.15700
C2477       C  0.95890726  0.86530230  0.02409277     0.14400
C2478       C  0.92497382  0.86781008  0.02162536     0.01300
C2479       C  0.90220999  0.85774004  0.02638264     0.16300
C2480       C  0.91330486  0.84512745  0.03217065     0.25700
C2481       C  0.94745260  0.84236129  0.03318609    -0.40600
C2482       C  0.97008655  0.85274369  0.02986540     0.32800
C2483       C  0.91346930  0.88049841  0.01188365     0.01400
F2484       F  0.86916421  0.86005174  0.02468073    -0.12900
F2485       F  0.00326651  0.85070955  0.03138842    -0.13400
C2486       C  0.89672012  0.88074291  0.99030483     0.16300
C2487       C  0.88423722  0.89246523  0.98127614     0.25700
C2488       C  0.88818983  0.90422708  0.99365660    -0.40600
C2489       C  0.90668897  0.90414106  0.01460231     0.32700
C2490       C  0.91924297  0.89232664  0.02367093     0.14400
F2491       F  0.89208637  0.86954100  0.97807443    -0.12900
F2492       F  0.91063662  0.91528852  0.02708814    -0.13400
F2493       F  0.86741261  0.89225666  0.96062704    -0.15700
F2494       F  0.93561372  0.89233605  0.04449072    -0.14300
F2495       F  0.98137033  0.87484627  0.01954338    -0.14300
F2496       F  0.89061994  0.83553482  0.03562234    -0.15700
C2497       C  0.71532759  0.76586617  0.79212788     0.14400
C2498       C  0.72566302  0.75284208  0.79468626     0.01300
C2499       C  0.75895186  0.75010759  0.80008907     0.16300
C2500       C  0.78201055  0.76023130  0.80163791     0.25700
C2501       C  0.77204134  0.77326473  0.79796038    -0.40600
C2502       C  0.73826855  0.77601380  0.79382199     0.32800
C2503       C  0.70257403  0.74205849  0.78959864     0.01400
F2504       F  0.76921667  0.73757060  0.80333165    -0.12900
F2505       F  0.72767479  0.78845943  0.78997129    -0.13400
C2506       C  0.70935496  0.73366665  0.77084256     0.16300
C2507       C  0.68882251  0.72304134  0.76636498     0.25700
C2508       C  0.66093923  0.72060282  0.78056727    -0.40600
C2509       C  0.65330011  0.72937483  0.79873678     0.32700
C2510       C  0.67403389  0.74004130  0.80321540     0.14400
F2511       F  0.73612833  0.73574107  0.75690398    -0.12900
F2512       F  0.62690738  0.72723727  0.81297721    -0.13400
F2513       F  0.69657197  0.71502327  0.74826605    -0.15700
F2514       F  0.66704550  0.74807942  0.82142627    -0.14300
F2515       F  0.68337589  0.76871211  0.78661975    -0.14300
F2516       F  0.81411270  0.75726602  0.80644341    -0.15700
C2517       C  0.87681810  0.80938049  0.89669886     0.14400
C2518       C  0.90117987  0.80005509  0.90250742     0.01300
C2519       C  0.91005409  0.79061958  0.88588518     0.16300
C2520       C  0.89529971  0.79063348  0.86366553     0.25700
C2521       C  0.87121068  0.80010153  0.85757910    -0.40600
C2522       C  0.86194206  0.80941564  0.87448686     0.32800
C2523       C  0.91704628  0.80012017  0.92599633     0.01400
F2524       F  0.93279825  0.78126937  0.89128487    -0.12900
F2525       F  0.83926557  0.81883437  0.86936220    -0.13400
C2526       C  0.89759086  0.79869966  0.94620592     0.16300
C2527       C  0.91204220  0.79921136  0.96844693     0.25700
C2528       C  0.94649226  0.80115120  0.97104999    -0.40600
C2529       C  0.96607563  0.80235012  0.95071316     0.32700
C2530       C  0.95145953  0.80179379  0.92839030     0.14400
F2531       F  0.86442875  0.79675416  0.94439205    -0.12900
F2532       F  0.99932012  0.80403438  0.95237340    -0.13400
F2533       F  0.89191866  0.79810884  0.98743823    -0.15700
F2534       F  0.97082578  0.80319108  0.90907959    -0.14300
F2535       F  0.86804181  0.81870214  0.91238893    -0.14300
F2536       F  0.90470413  0.78132115  0.84814003    -0.15700
C2537       C  0.90381959  0.94141646  0.82503586     0.14400
C2538       C  0.91937680  0.93603662  0.84492067     0.01300
C2539       C  0.95177999  0.93107379  0.84269270     0.16300
C2540       C  0.96793731  0.93117014  0.82087306     0.25700
C2541       C  0.95203242  0.93624405  0.80072132    -0.40600
C2542       C  0.91985050  0.94154667  0.80325038     0.32800
C2543       C  0.90202003  0.93587650  0.86802100     0.01400
F2544       F  0.96753092  0.92580488  0.86158594    -0.12900
F2545       F  0.90345985  0.94677309  0.78458941    -0.13400
C2546       C  0.87128839  0.92955822  0.87082573     0.16300
C2547       C  0.85494292  0.92957004  0.89261759     0.25700
C2548       C  0.86892673  0.93597086  0.91208723    -0.40600
C2549       C  0.89981608  0.94227993  0.90906698     0.32700
C2550       C  0.91599463  0.94223272  0.88736584     0.14400
F2551       F  0.85735769  0.92316000  0.85251494    -0.12900
F2552       F  0.91489117  0.94843096  0.92720074    -0.13400
F2553       F  0.82551187  0.92327772  0.89458971    -0.15700
F2554       F  0.94528359  0.94862235  0.88517147    -0.14300
F2555       F  0.87304734  0.94670746  0.82675306    -0.14300
F2556       F  0.99890391  0.92604071  0.81947901    -0.15700
C2557       C  0.91251759  0.87971199  0.75303767     0.14400
C2558       C  0.93577592  0.86952840  0.75546927     0.01300
C2559       C  0.96905490  0.87183259  0.74994335     0.16300
C2560       C  0.97920472  0.88427466  0.74294293     0.25700
C2561       C  0.95625682  0.89468831  0.74167969    -0.40600
C2562       C  0.92266365  0.89221556  0.74627044     0.32800
C2563       C  0.92527036  0.85665897  0.76451400     0.01400
F2564       F  0.99200663  0.86218790  0.75237248    -0.12900
F2565       F  0.89990662  0.90200196  0.74544511    -0.13400
C2566       C  0.93008790  0.84528829  0.75120125     0.16300
C2567       C  0.91652249  0.83341033  0.75868446     0.25700
C2568       C  0.89767478  0.83286840  0.77937881    -0.40600
C2569       C  0.89485160  0.84405592  0.79342799     0.32700
C2570       C  0.90879603  0.85583112  0.78614620     0.14400
F2571       F  0.94602247  0.84586525  0.73025145    -0.12900
F2572       F  0.87751332  0.84369039  0.81383752    -0.13400
F2573       F  0.91943936  0.82275433  0.74474615    -0.15700
F2574       F  0.90532355  0.86655435  0.79987260    -0.14300
F2575       F  0.87999385  0.87759348  0.75772150    -0.14300
F2576       F  0.01175051  0.88617978  0.73801537    -0.15700
C2577       C  0.94351976  0.68025917  0.37077383     0.14400
C2578       C  0.91914894  0.67897044  0.38830220     0.01300
C2579       C  0.88604252  0.67712841  0.38154341     0.16300
C2580       C  0.87722000  0.67729201  0.35781410     0.25700
C2581       C  0.90128862  0.67941418  0.34026273    -0.40600
C2582       C  0.93469211  0.68051085  0.34697407     0.32800
C2583       C  0.92775898  0.68067892  0.41347861     0.01400
F2584       F  0.86188357  0.67585518  0.39795449    -0.12900
F2585       F  0.95863197  0.68248239  0.33063716    -0.13400
C2586       C  0.94363407  0.69217389  0.42074403     0.16300
C2587       C  0.95128786  0.69412552  0.44437869     0.25700
C2588       C  0.94284667  0.68468594  0.46148112    -0.40600
C2589       C  0.92644195  0.67323619  0.45423987     0.32700
C2590       C  0.91911962  0.67123748  0.43046150     0.14400
F2591       F  0.95109526  0.70171591  0.40494084    -0.12900
F2592       F  0.91818955  0.66379972  0.47003561    -0.13400
F2593       F  0.96664685  0.70540099  0.45047702    -0.15700
F2594       F  0.90412276  0.65995254  0.42397923    -0.14300
F2595       F  0.97587974  0.68159738  0.37676109    -0.14300
F2596       F  0.84485015  0.67562524  0.35208407    -0.15700
C2597       C  0.66846406  0.57227929  0.32216294     0.14400
C2598       C  0.67725766  0.56243100  0.33842238     0.01300
C2599       C  0.69177302  0.55086454  0.33006302     0.16300
C2600       C  0.69783975  0.54923178  0.30605576     0.25700
C2601       C  0.68927317  0.55910583  0.28969792    -0.40600
C2602       C  0.67430503  0.57062883  0.29806954     0.32800
C2603       C  0.66980986  0.56388026  0.36391254     0.01400
F2604       F  0.69943274  0.54096998  0.34514228    -0.12900
F2605       F  0.66629784  0.58051184  0.28306994    -0.13400
C2606       C  0.63707912  0.56597391  0.37126703     0.16300
C2607       C  0.62926983  0.56633747  0.39514336     0.25700
C2608       C  0.65397723  0.56447535  0.41242717    -0.40600
C2609       C  0.68701177  0.56289343  0.40511231     0.32700
C2610       C  0.69483321  0.56256798  0.38106595     0.14400
F2611       F  0.61224565  0.56708076  0.35527999    -0.12900
F2612       F  0.71151129  0.56107662  0.42113933    -0.13400
F2613       F  0.59716426  0.56830465  0.40130397    -0.15700
F2614       F  0.72682819  0.56079880  0.37450798    -0.14300
F2615       F  0.65478465  0.58364154  0.32969051    -0.14300
F2616       F  0.71182568  0.53786336  0.29883338    -0.15700
C2617       C  0.59571865  0.51919087  0.21530554     0.14400
C2618       C  0.60621644  0.50613255  0.21538670     0.01300
C2619       C  0.64011584  0.50325811  0.21326075     0.16300
C2620       C  0.66343053  0.51334520  0.21220261     0.25700
C2621       C  0.65314811  0.52649196  0.21329079    -0.40600
C2622       C  0.61889271  0.52929616  0.21426025     0.32800
C2623       C  0.58211327  0.49554000  0.21954303     0.01400
F2624       F  0.65062655  0.49064363  0.21262584    -0.12900
F2625       F  0.60771155  0.54180781  0.21544690    -0.13400
C2626       C  0.55770380  0.49261083  0.20282323     0.16300
C2627       C  0.53599075  0.48214456  0.20659285     0.25700
C2628       C  0.53855756  0.47447404  0.22712226    -0.40600
C2629       C  0.56216886  0.47779916  0.24422517     0.32700
C2630       C  0.58367723  0.48826897  0.24048236     0.14400
F2631       F  0.55597035  0.49949102  0.18239679    -0.12900
F2632       F  0.56486783  0.47072284  0.26439182    -0.13400
F2633       F  0.51413018  0.47894067  0.18946129    -0.15700
F2634       F  0.60640067  0.49124051  0.25719114    -0.14300
F2635       F  0.56307090  0.52215497  0.21748144    -0.14300
F2636       F  0.69602761  0.51022426  0.21045306    -0.15700
C2637       C  0.81055055  0.59809930  0.26386982     0.14400
C2638       C  0.80291127  0.61006133  0.25283294     0.01300
C2639       C  0.78341082  0.61017443  0.23246607     0.16300
C2640       C  0.76986834  0.59862956  0.22406715     0.25700
C2641       C  0.77571292  0.58670633  0.23584572    -0.40600
C2642       C  0.79704693  0.58644910  0.25539141     0.32800
C2643       C  0.81498166  0.62256763  0.26217872     0.01400
F2644       F  0.77707578  0.62156071  0.22087435    -0.12900
F2645       F  0.80307081  0.57510819  0.26717840    -0.13400
C2646       C  0.84897342  0.62515568  0.26280899     0.16300
C2647       C  0.86018675  0.63773119  0.26766472     0.25700
C2648       C  0.83744741  0.64800174  0.27172838    -0.40600
C2649       C  0.80342546  0.64512075  0.27272342     0.32700
C2650       C  0.79233370  0.63248124  0.26802478     0.14400
F2651       F  0.87126445  0.61571095  0.25723560    -0.12900
F2652       F  0.78072875  0.65461013  0.27708972    -0.13400
F2653       F  0.89335235  0.63989787  0.26742474    -0.15700
F2654       F  0.75930710  0.63000813  0.26822740    -0.14300
F2655       F  0.82974291  0.59778994  0.28344283    -0.14300
F2656       F  0.75026012  0.59918355  0.20469921    -0.15700
C2657       C  0.65317211  0.67028211  0.93442913     0.14400
C2658       C  0.66016213  0.68034157  0.91818243     0.01300
C2659       C  0.67209299  0.69232364  0.92655350     0.16300
C2660       C  0.67770585  0.69416150  0.95052146     0.25700
C2661       C  0.67153640  0.68403605  0.96685724    -0.40600
C2662       C  0.65880362  0.67210440  0.95855116     0.32800
C2663       C  0.65388546  0.67873750  0.89258608     0.01400
F2664       F  0.67797688  0.70237657  0.91144791    -0.12900
F2665       F  0.65313775  0.66200719  0.97359470    -0.13400
C2666       C  0.62160867  0.67650948  0.88439051     0.16300
C2667       C  0.61463088  0.67693586  0.86031815     0.25700
C2668       C  0.63983240  0.67954567  0.84381843    -0.40600
C2669       C  0.67254982  0.68098102  0.85194202     0.32700
C2670       C  0.67946649  0.68063572  0.87611069     0.14400
F2671       F  0.59640911  0.67461314  0.89978665    -0.12900
F2672       F  0.69755316  0.68344560  0.83664395    -0.13400
F2673       F  0.58293118  0.67502465  0.85317566    -0.15700
F2674       F  0.71106945  0.68249928  0.88350538    -0.14300
F2675       F  0.64181648  0.65855961  0.92685806    -0.14300
F2676       F  0.68926236  0.70593198  0.95771771    -0.15700
C2677       C  0.62846685  0.74039895  0.04369907     0.14400
C2678       C  0.59433108  0.73764970  0.04355834     0.01300
C2679       C  0.58399442  0.72457598  0.04487813     0.16300
C2680       C  0.60730007  0.71441131  0.04541516     0.25700
C2681       C  0.64159199  0.71709687  0.04440110    -0.40600
C2682       C  0.65185850  0.73025421  0.04405434     0.32800
C2683       C  0.56977131  0.74840860  0.04069880     0.01400
F2684       F  0.55125028  0.72160343  0.04445830    -0.12900
F2685       F  0.68452741  0.73334758  0.04374843    -0.13400
C2686       C  0.57168370  0.75674844  0.02106870     0.16300
C2687       C  0.55052816  0.76751631  0.01895932     0.25700
C2688       C  0.52667740  0.77014787  0.03633256    -0.40600
C2689       C  0.52338459  0.76138176  0.05531852     0.32700
C2690       C  0.54486750  0.75060660  0.05752231     0.14400
F2691       F  0.59437773  0.75452429  0.00396924    -0.12900
F2692       F  0.50086869  0.76369433  0.07247507    -0.13400
F2693       F  0.55373733  0.77552702  0.99998978    -0.15700
F2694       F  0.54239742  0.74269262  0.07665650    -0.14300
F2695       F  0.63918433  0.75297376  0.04320662    -0.14300
F2696       F  0.59604096  0.70191212  0.04583265    -0.15700
C2697       C  0.79497230  0.69544372  0.12206376     0.14400
C2698       C  0.78383850  0.68761831  0.14070125     0.01300
C2699       C  0.75506441  0.68010965  0.13773204     0.16300
C2700       C  0.73770528  0.68037468  0.11634014     0.25700
C2701       C  0.74870105  0.68827869  0.09749487    -0.40600
C2702       C  0.77764652  0.69582800  0.10075791     0.32800
C2703       C  0.80139413  0.68785638  0.16360159     0.01400
F2704       F  0.74390377  0.67243988  0.15556825    -0.12900
F2705       F  0.78938897  0.70367352  0.08336259    -0.13400
C2706       C  0.78879999  0.69542999  0.18196324     0.16300
C2707       C  0.80509837  0.69584090  0.20363945     0.25700
C2708       C  0.83441633  0.68857072  0.20755841    -0.40600
C2709       C  0.84735307  0.68115540  0.18885479     0.32700
C2710       C  0.83098896  0.68084384  0.16707662     0.14400
F2711       F  0.76058603  0.70248068  0.17883920    -0.12900
F2712       F  0.87520903  0.67386815  0.19179600    -0.13400
F2713       F  0.79190813  0.70335841  0.22083194    -0.15700
F2714       F  0.84366024  0.67347209  0.14949564    -0.14300
F2715       F  0.82251068  0.70289054  0.12464863    -0.14300
F2716       F  0.71038634  0.67278152  0.11407857    -0.15700
C2717       C  0.91081477  0.57631145  0.81955992     0.14400
C2718       C  0.92353646  0.56763627  0.83663185     0.01300
C2719       C  0.94146512  0.55663942  0.82928253     0.16300
C2720       C  0.94613875  0.55418478  0.80541092     0.25700
C2721       C  0.93304697  0.56271778  0.78811340    -0.40600
C2722       C  0.91553470  0.57389962  0.79553713     0.32800
C2723       C  0.91522271  0.56909237  0.86191466     0.01400
F2724       F  0.95354905  0.54796038  0.84529417    -0.12900
F2725       F  0.90349167  0.58264137  0.77963990    -0.13400
C2726       C  0.88201656  0.56838128  0.86896120     0.16300
C2727       C  0.87379453  0.56756898  0.89273017     0.25700
C2728       C  0.89865329  0.56743856  0.91017875    -0.40600
C2729       C  0.93188931  0.56893865  0.90318973     0.32700
C2730       C  0.94010357  0.56969087  0.87923986     0.14400
F2731       F  0.85747182  0.56771785  0.85270615    -0.12900
F2732       F  0.95654382  0.56907051  0.91939939    -0.13400
F2733       F  0.84129036  0.56665952  0.89858177    -0.15700
F2734       F  0.97241329  0.57068181  0.87292090    -0.14300
F2735       F  0.89393993  0.58717242  0.82619602    -0.14300
F2736       F  0.96329575  0.54328598  0.79933762    -0.15700
C2737       C  0.79753925  0.54766755  0.12869929     0.14400
C2738       C  0.78555783  0.55599626  0.11099222     0.01300
C2739       C  0.75730675  0.56364505  0.11542189     0.16300
C2740       C  0.74170236  0.56319257  0.13746148     0.25700
C2741       C  0.75394195  0.55496333  0.15550455    -0.40600
C2742       C  0.78194513  0.54709429  0.15063383     0.32800
C2743       C  0.80224229  0.55644583  0.08775748     0.01400
F2744       F  0.74515463  0.57172400  0.09846725    -0.12900
F2745       F  0.79455933  0.53882283  0.16711233    -0.13400
C2746       C  0.78829955  0.54998015  0.06855060     0.16300
C2747       C  0.80399409  0.55019787  0.04663732     0.25700
C2748       C  0.83409966  0.55703210  0.04330922    -0.40600
C2749       C  0.84818265  0.56340513  0.06280374     0.32700
C2750       C  0.83245819  0.56304923  0.08480278     0.14400
F2751       F  0.75941430  0.54334989  0.07107704    -0.12900
F2752       F  0.87696432  0.57012898  0.06061213    -0.13400
F2753       F  0.78929203  0.54378860  0.02864265    -0.15700
F2754       F  0.84648280  0.56932917  0.10320577    -0.14300
F2755       F  0.82436613  0.53997870  0.12465457    -0.14300
F2756       F  0.71499635  0.57099325  0.14117620    -0.15700
C2757       C  0.77679631  0.60852270  0.99264053     0.14400
C2758       C  0.79488814  0.61996429  0.98770857     0.01300
C2759       C  0.82488936  0.61902585  0.97542324     0.16300
C2760       C  0.83782773  0.60678777  0.96974117     0.25700
C2761       C  0.82097767  0.59529776  0.97625602    -0.40600
C2762       C  0.78972237  0.59625104  0.98688459     0.32800
C2763       C  0.78377033  0.63272831  0.99690340     0.01400
F2764       F  0.84276283  0.62990715  0.97032229    -0.12900
F2765       F  0.77298115  0.58532132  0.99341533    -0.13400
C2766       C  0.77897877  0.63430730  0.02116516     0.16300
C2767       C  0.76714338  0.64614230  0.02994074     0.25700
C2768       C  0.76077649  0.65667520  0.01467650    -0.40600
C2769       C  0.76690965  0.65531712  0.99055562     0.32700
C2770       C  0.77815896  0.64338560  0.98169210     0.14400
F2771       F  0.78556279  0.62433554  0.03633788    -0.12900
F2772       F  0.75962693  0.66522205  0.97540203    -0.13400
F2773       F  0.76131823  0.64727103  0.05330937    -0.15700
F2774       F  0.78207117  0.64204375  0.95816869    -0.14300
F2775       F  0.74723349  0.60922715  0.00390040    -0.14300
F2776       F  0.86763118  0.60613196  0.95877650    -0.15700
C2777       C  0.87504441  0.17389664  0.82379996     0.14400
C2778       C  0.90715261  0.17489354  0.83293993     0.01300
C2779       C  0.93402281  0.17615694  0.81733562     0.16300
C2780       C  0.92866137  0.17692193  0.79297237     0.25700
C2781       C  0.89626460  0.17667733  0.78389640    -0.40600
C2782       C  0.86960188  0.17483655  0.79959696     0.32800
C2783       C  0.91196290  0.17623478  0.85866560     0.01400
F2784       F  0.96536392  0.17706735  0.82579816    -0.12900
F2785       F  0.83798235  0.17420212  0.79154753    -0.13400
C2786       C  0.90527903  0.16585906  0.87432878     0.16300
C2787       C  0.90935297  0.16751793  0.89866236     0.25700
C2788       C  0.92005944  0.17959620  0.90759777    -0.40600
C2789       C  0.92576048  0.19001555  0.89185194     0.32700
C2790       C  0.92176333  0.18834709  0.86771005     0.14400
F2791       F  0.89575139  0.15404589  0.86599304    -0.12900
F2792       F  0.43380139  0.20256230  0.89935361    -0.13400
F2793       F  0.90450196  0.15717310  0.91330547    -0.15700
F2794       F  0.92719129  0.19864973  0.85307200    -0.14300
F2795       F  0.84869415  0.17275132  0.83845497    -0.14300
F2796       F  0.95491238  0.17868118  0.77844683    -0.15700
C2797       C  0.66300416  0.06108938  0.87171607     0.14400
C2798       C  0.64582209  0.05469029  0.85364850     0.01300
C2799       C  0.61988840  0.04617462  0.85951732     0.16300
C2800       C  0.61095056  0.04418659  0.88296042     0.25700
C2801       C  0.62777172  0.05071567  0.90117390    -0.40600
C2802       C  0.65413365  0.05910918  0.89525735     0.32800
C2803       C  0.65625312  0.05611310  0.82878932     0.01400
F2804       F  0.60366770  0.03949969  0.84250491    -0.12900
F2805       F  0.67086144  0.06566695  0.91215592    -0.13400
C2806       C  0.68818901  0.05224383  0.82214928     0.16300
C2807       C  0.69743631  0.05228707  0.79855063     0.25700
C2808       C  0.67481344  0.05614202  0.78084758    -0.40600
C2809       C  0.64312279  0.06051709  0.78763733     0.32700
C2810       C  0.63394022  0.06046753  0.81140383     0.14400
F2811       F  0.71009914  0.04783955  0.83850048    -0.12900
F2812       F  0.62066252  0.06447609  0.77132078    -0.13400
F2813       F  0.72857456  0.04828421  0.79313087    -0.15700
F2814       F  0.60308941  0.06453147  0.81745215    -0.14300
F2815       F  0.68811205  0.06941864  0.86651006    -0.14300
F2816       F  0.58596153  0.03572300  0.88776308    -0.15700
C2817       C  0.63145026  0.99731238  0.72060224     0.14400
C2818       C  0.59721506  0.99966993  0.71852298     0.01300
C2819       C  0.58598263  0.01229979  0.71326926     0.16300
C2820       C  0.60843846  0.02250357  0.71039997     0.25700
C2821       C  0.64289611  0.02030819  0.71281355    -0.40600
C2822       C  0.65413793  0.00755241  0.71784760     0.32800
C2823       C  0.57305964  0.98910349  0.72282420     0.01400
F2824       F  0.55302394  0.01487996  0.71184961    -0.12900
F2825       F  0.68695537  0.00497538  0.72031876    -0.13400
C2826       C  0.57264482  0.98265411  0.74461664     0.16300
C2827       C  0.55123159  0.97219901  0.74843631     0.25700
C2828       C  0.52973302  0.96804149  0.73055149    -0.40600
C2829       C  0.52859198  0.97500080  0.70923518     0.32700
C2830       C  0.55025894  0.98545929  0.70535750     0.14400
F2831       F  0.59334249  0.98638482  0.76212260    -0.12900
F2832       F  0.50833977  0.97109191  0.69159993    -0.13400
F2833       F  0.55214298  0.96586289  0.76945815    -0.15700
F2834       F  0.55015397  0.99160211  0.68416156    -0.14300
F2835       F  0.64285707  0.98507629  0.72536912    -0.14300
F2836       F  0.59605884  0.03464678  0.70613788    -0.15700
C2837       C  0.77795713  0.13443816  0.72141571     0.14400
C2838       C  0.79773598  0.12326233  0.71806828     0.01300
C2839       C  0.83180811  0.12466958  0.71467357     0.16300
C2840       C  0.84611079  0.13703247  0.71453689     0.25700
C2841       C  0.82650394  0.14838333  0.71770498    -0.40600
C2842       C  0.79222737  0.14692217  0.72132239     0.32800
C2843       C  0.78287349  0.11012108  0.71705242     0.01400
F2844       F  0.85121772  0.11403354  0.71078885    -0.12900
F2845       F  0.77246084  0.15751516  0.72450209    -0.13400
C2846       C  0.76003743  0.10723696  0.69931551     0.16300
C2847       C  0.74587658  0.09485890  0.69814617     0.25700
C2848       C  0.75439906  0.08511584  0.71468192    -0.40600
C2849       C  0.77825560  0.08781193  0.73189339     0.32700
C2850       C  0.79236865  0.10028050  0.73311065     0.14400
F2851       F  0.75173698  0.11638869  0.68294311    -0.12900
F2852       F  0.78668851  0.07861689  0.74813621    -0.13400
F2853       F  0.72380720  0.09236845  0.68073290    -0.15700
F2854       F  0.81462887  0.10287632  0.75031823    -0.14300
F2855       F  0.74482711  0.13322799  0.72480346    -0.14300
F2856       F  0.87933755  0.13777489  0.71113271    -0.15700
C2857       C  0.88569272  0.04611042  0.36189537     0.14400
C2858       C  0.90115329  0.05770468  0.35437342     0.01300
C2859       C  0.91216012  0.06664206  0.37138054     0.16300
C2860       C  0.90694524  0.06417926  0.39537593     0.25700
C2861       C  0.89036781  0.05278654  0.40280180    -0.40600
C2862       C  0.88010881  0.04372806  0.38578228     0.32800
C2863       C  0.90652137  0.06014413  0.32883169     0.01400
F2864       F  0.92692840  0.07798392  0.36471921    -0.12900
F2865       F  0.86453979  0.03252185  0.39227861    -0.13400
C2866       C  0.87983245  0.05987000  0.31283665     0.16300
C2867       C  0.88548168  0.06051165  0.28851394     0.25700
C2868       C  0.91794350  0.06137653  0.27979924    -0.40600
C2869       C  0.94435875  0.06249702  0.29590814     0.32700
C2870       C  0.93871771  0.06185731  0.32009456     0.14400
F2871       F  0.84831400  0.05865315  0.32079739    -0.12900
F2872       F  0.97599633  0.06387181  0.28820528    -0.13400
F2873       F  0.85945041  0.05950518  0.27355524    -0.15700
F2874       F  0.96503565  0.06218100  0.33493442    -0.14300
F2875       F  0.87621589  0.03699289  0.34604583    -0.14300
F2876       F  0.91644079  0.07328937  0.41122819    -0.15700
C2877       C  0.82081205  0.05299468  0.57740052     0.14400
C2878       C  0.78637976  0.05112049  0.57939649     0.01300
C2879       C  0.76775380  0.04922147  0.55890227     0.16300
C2880       C  0.78314228  0.04891475  0.53691679     0.25700
C2881       C  0.81775523  0.05049408  0.53476485    -0.40600
C2882       C  0.83634989  0.05274906  0.55531815     0.32800
C2883       C  0.76976349  0.05074214  0.60275388     0.01400
F2884       F  0.73452495  0.04735583  0.56021359    -0.12900
F2885       F  0.86960241  0.05454580  0.55415411    -0.13400
C2886       C  0.74378396  0.05944186  0.60800518     0.16300
C2887       C  0.72734873  0.05874867  0.62966902     0.25700
C2888       C  0.73658923  0.04934253  0.64666530    -0.40600
C2889       C  0.76252897  0.04057111  0.64122977     0.32700
C2890       C  0.77885392  0.04128120  0.61956112     0.14400
F2891       F  0.73483386  0.06885785  0.59231958    -0.12900
F2892       F  0.77227835  0.03125729  0.65688590    -0.13400
F2893       F  0.70316271  0.06761041  0.63425637    -0.15700
F2894       F  0.80331303  0.03255323  0.61484017    -0.14300
F2895       F  0.83937495  0.05518382  0.59685846    -0.14300
F2896       F  0.76383158  0.04720450  0.51766766    -0.15700
C2897       C  0.62862748  0.18095878  0.32301024     0.14400
C2898       C  0.66139898  0.17920504  0.33062983     0.01300
C2899       C  0.68651337  0.17784367  0.31363223     0.16300
C2900       C  0.67902535  0.17850237  0.28950020     0.25700
C2901       C  0.64628355  0.18073725  0.28186073    -0.40600
C2902       C  0.62114162  0.18174547  0.29901430     0.32800
C2903       C  0.66950092  0.17988020  0.35619721     0.01400
F2904       F  0.71842719  0.17602781  0.32044814    -0.12900
F2905       F  0.58904880  0.18356649  0.29262029    -0.13400
C2906       C  0.65641656  0.17083847  0.37250238     0.16300
C2907       C  0.66355200  0.17190335  0.39664675     0.25700
C2908       C  0.68387981  0.18206736  0.40493919    -0.40600
C2909       C  0.69636152  0.19120488  0.38850418     0.32700
C2910       C  0.68931168  0.19010163  0.36454316     0.14400
F2911       F  0.63729114  0.16080765  0.36496050    -0.12900
F2912       F  0.71522660  0.20141475  0.39563197    -0.13400
F2913       F  0.65148619  0.16276375  0.41173034    -0.15700
F2914       F  0.70135289  0.19925023  0.34945048    -0.14300
F2915       F  0.60388843  0.18246171  0.33889298    -0.14300
F2916       F  0.70399566  0.17744054  0.27369488    -0.15700
C2917       C  0.61085084  0.22907123  0.48447555     0.14400
C2918       C  0.61881198  0.23937604  0.46911430     0.01300
C2919       C  0.64946854  0.23916443  0.45736702     0.16300
C2920       C  0.67154960  0.22875617  0.46067382     0.25700
C2921       C  0.66311616  0.21820234  0.47542755    -0.40600
C2922       C  0.63263582  0.21856300  0.48752016     0.32800
C2923       C  0.59578034  0.25057839  0.46600179     0.01400
F2924       F  0.65763047  0.24886576  0.44206776    -0.12900
F2925       F  0.62365674  0.20868357  0.50221662    -0.13400
C2926       C  0.60720419  0.26332650  0.46983775     0.16300
C2927       C  0.58603721  0.27398516  0.46694268     0.25700
C2928       C  0.55262142  0.27215245  0.46063950    -0.40600
C2929       C  0.54084208  0.25939314  0.45723252     0.32700
C2930       C  0.56239080  0.24867704  0.45960345     0.14400
F2931       F  0.63876402  0.26545882  0.47710958    -0.12900
F2932       F  0.50877172  0.25732542  0.45116978    -0.13400
F2933       F  0.59806052  0.28612755  0.47127028    -0.15700
F2934       F  0.55078700  0.23647454  0.45532044    -0.14300
F2935       F  0.58203461  0.22922222  0.49673959    -0.14300
F2936       F  0.70047570  0.22875369  0.44855175    -0.15700
C2937       C  0.76335191  0.17785928  0.57753120     0.14400
C2938       C  0.78860124  0.18700423  0.58177720     0.01300
C2939       C  0.79584258  0.19632934  0.56438896     0.16300
C2940       C  0.77880950  0.19634644  0.54290690     0.25700
C2941       C  0.75383732  0.18703749  0.53824683    -0.40600
C2942       C  0.74606757  0.17787480  0.55602530     0.32800
C2943       C  0.80653789  0.18720268  0.60467002     0.01400
F2944       F  0.81959442  0.20544499  0.56822446    -0.12900
F2945       F  0.72251509  0.16866544  0.55237514    -0.13400
C2946       C  0.83543127  0.17973410  0.60832220     0.16300
C2947       C  0.85175044  0.17980470  0.63020146     0.25700
C2948       C  0.83946170  0.18737274  0.64891305    -0.40600
C2949       C  0.81103289  0.19519652  0.64472829     0.32700
C2950       C  0.79488160  0.19507001  0.62293934     0.14400
F2951       F  0.84762906  0.17225296  0.59073619    -0.12900
F2952       F  0.79835508  0.20291198  0.66182741    -0.13400
F2953       F  0.87903856  0.17219300  0.63317903    -0.15700
F2954       F  0.76741979  0.20256556  0.61974671    -0.14300
F2955       F  0.75558641  0.16884734  0.59422332    -0.14300
F2956       F  0.78679715  0.20558283  0.52666061    -0.15700
C2957       C  0.75963439  0.12681528  0.47330475     0.14400
C2958       C  0.78175755  0.12452658  0.45483684     0.01300
C2959       C  0.79296882  0.13508059  0.44106107     0.16300
C2960       C  0.78197992  0.14778985  0.44571241     0.25700
C2961       C  0.75947457  0.15002192  0.46406525    -0.40600
C2962       C  0.74850734  0.13940635  0.47783705     0.32800
C2963       C  0.79532737  0.11127009  0.45188861     0.01400
F2964       F  0.81421573  0.13303662  0.42299572    -0.12900
F2965       F  0.72717493  0.14120977  0.49595649    -0.13400
C2966       C  0.77405827  0.10050514  0.44930841     0.16300
C2967       C  0.78624852  0.08777959  0.45190931     0.25700
C2968       C  0.81994395  0.08568289  0.45697953    -0.40600
C2969       C  0.84153555  0.09651241  0.45773287     0.32700
C2970       C  0.82925417  0.10916620  0.45532737     0.14400
F2971       F  0.74121758  0.10236915  0.44533106    -0.12900
F2972       F  0.87451794  0.09495856  0.46155885    -0.13400
F2973       F  0.76479172  0.07761031  0.45056971    -0.15700
F2974       F  0.85024976  0.11940440  0.45802515    -0.14300
F2975       F  0.74948911  0.11686221  0.48745649    -0.14300
F2976       F  0.79236876  0.15779315  0.43180128    -0.15700
C2977       C  0.80944637  0.31941986  0.05883579     0.14400
C2978       C  0.78991988  0.31376617  0.07666325     0.01300
C2979       C  0.76118122  0.30697990  0.07043548     0.16300
C2980       C  0.75227403  0.30562187  0.04691977     0.25700
C2981       C  0.77187350  0.31109761  0.02879994    -0.40600
C2982       C  0.80046938  0.31814100  0.03509066     0.32800
C2983       C  0.80052702  0.31382953  0.10164327     0.01400
F2984       F  0.74222576  0.30119345  0.08719993    -0.12900
F2985       F  0.81958299  0.32386919  0.01837766    -0.13400
C2986       C  0.78026828  0.31928444  0.11912871     0.16300
C2987       C  0.78834417  0.31777728  0.14297557     0.25700
C2988       C  0.81681555  0.31068809  0.14983117    -0.40600
C2989       C  0.83740676  0.30551621  0.13208477     0.32700
C2990       C  0.82931013  0.30708567  0.10835378     0.14400
F2991       F  0.75236318  0.32593751  0.11307780    -0.12900
F2992       F  0.86508310  0.29857099  0.13755920    -0.13400
F2993       F  0.76807442  0.32316186  0.15927884    -0.15700
F2994       F  0.84883506  0.30143060  0.09187662    -0.14300
F2995       F  0.83714146  0.32621400  0.06446677    -0.14300
F2996       F  0.72458145  0.29863719  0.04202672    -0.15700
C2997       C  0.88673326  0.24019816  0.97222429     0.14400
C2998       C  0.85202364  0.23878120  0.97256448     0.01300
C2999       C  0.83869236  0.22621368  0.97555173     0.16300
C3000       C  0.85940285  0.21528648  0.97792752     0.25700
C3001       C  0.89422941  0.21659625  0.97718154    -0.40600
C3002       C  0.90760376  0.22923233  0.97441606     0.32800
C3003       C  0.82956895  0.25027304  0.96922514     0.01400
F3004       F  0.80538245  0.22442649  0.97528276    -0.12900
F3005       F  0.94089363  0.23101774  0.97379285    -0.13400
C3006       C  0.83226238  0.25826244  0.94913714     0.16300
C3007       C  0.81114603  0.26903016  0.94592902     0.25700
C3008       C  0.78645825  0.27197639  0.96257554    -0.40600
C3009       C  0.78332165  0.26383122  0.98245192     0.32700
C3010       C  0.80476801  0.25314727  0.98580410     0.14400
F3011       F  0.85524390  0.25558028  0.93245763    -0.12900
F3012       F  0.76078660  0.26664793  0.99935535    -0.13400
F3013       F  0.81496924  0.27663536  0.92649820    -0.15700
F3014       F  0.80210168  0.24587703  0.00573200    -0.14300
F3015       F  0.90048347  0.25223680  0.96989937    -0.14300
F3016       F  0.84506696  0.20334408  0.98007816    -0.15700
C3017       C  0.51580423  0.43624056  0.11962272     0.14400
C3018       C  0.54925544  0.43438290  0.11394317     0.01300
C3019       C  0.07448028  0.43251061  0.13267383     0.16300
C3020       C  0.06399610  0.43268798  0.15619193     0.25700
C3021       C  0.52876035  0.43524052  0.16147326    -0.40600
C3022       C  0.50561177  0.43654239  0.14297143     0.32800
C3023       C  0.55972051  0.43500579  0.08894348     0.01400
F3024       F  0.10718511  0.43099250  0.12790184    -0.12900
F3025       F  0.47283181  0.43826601  0.14731759    -0.13400
C3026       C  0.58308935  0.44430959  0.08158612     0.16300
C3027       C  0.59072625  0.44579968  0.05777545     0.25700
C3028       C  0.57484175  0.43809654  0.04065859    -0.40600
C3029       C  0.55169445  0.42866902  0.04811007     0.32700
C3030       C  0.54439624  0.42709030  0.07199616     0.14400
F3031       F  0.59756649  0.45237610  0.09738823    -0.12900
F3032       F  0.53623644  0.42087763  0.03234192    -0.13400
F3033       F  0.61301097  0.45510610  0.05150439    -0.15700
F3034       F  0.52220441  0.41782029  0.07860432    -0.14300
F3035       F  0.49292479  0.43828448  0.10248711    -0.14300
F3036       F  0.08698318  0.43166381  0.17350955    -0.15700
C3037       C  0.52901374  0.49832158  0.97782130     0.14400
C3038       C  0.99374867  0.49610306  0.97658049     0.01300
C3039       C  0.98248714  0.48322646  0.97414581     0.16300
C3040       C  0.50509414  0.47282937  0.97346944     0.25700
C3041       C  0.53967244  0.47494503  0.97343365    -0.40600
C3042       C  0.55139801  0.48782597  0.97601107     0.32800
C3043       C  0.96953399  0.50703681  0.97780832     0.01400
F3044       F  0.94952872  0.48061255  0.97404326    -0.12900
F3045       F  0.58439773  0.49030516  0.97647974    -0.13400
C3046       C  0.94634379  0.50901982  0.95964577     0.16300
C3047       C  0.92370111  0.51940260  0.96060737     0.25700
C3048       C  0.92415709  0.52809381  0.97960114    -0.40600
C3049       C  0.94694161  0.52595524  0.99797298     0.32700
C3050       C  0.96925004  0.51547782  0.99715622     0.14400
F3051       F  0.94642594  0.50116017  0.94053646    -0.12900
F3052       F  0.94754048  0.53401517  0.01681298    -0.13400
F3053       F  0.90258269  0.52136759  0.94236045    -0.15700
F3054       F  0.99044123  0.51351656  0.01536761    -0.14300
F3055       F  0.54091739  0.51067307  0.97973211    -0.14300
F3056       F  0.49236177  0.46057339  0.97226553    -0.15700
C3057       C  0.68335664  0.39283199  0.95783312     0.14400
C3058       C  0.67135071  0.38333173  0.97366939     0.01300
C3059       C  0.64914764  0.38707712  0.99134094     0.16300
C3060       C  0.63785237  0.39997103  0.99246354     0.25700
C3061       C  0.64899774  0.40934482  0.97618483    -0.40600
C3062       C  0.67227126  0.40579016  0.95913749     0.32800
C3063       C  0.68192145  0.36952198  0.97175356     0.01400
F3064       F  0.63812168  0.37819564  0.00731928    -0.12900
F3065       F  0.68243046  0.41463493  0.94280835    -0.13400
C3066       C  0.71552868  0.36631007  0.97373040     0.16300
C3067       C  0.72588999  0.35336092  0.97174377     0.25700
C3068       C  0.70277829  0.34327443  0.96773713    -0.40600
C3069       C  0.66896625  0.34645857  0.96613038     0.32700
C3070       C  0.65862689  0.35951281  0.96804562     0.14400
F3071       F  0.73836615  0.37573411  0.97797039    -0.12900
F3072       F  0.64610255  0.33703995  0.96200329    -0.13400
F3073       F  0.75869351  0.35069933  0.97417221    -0.15700
F3074       F  0.62597237  0.36243953  0.96570504    -0.14300
F3075       F  0.70453020  0.38940988  0.94041621    -0.14300
F3076       F  0.61522255  0.40326417  0.00903891    -0.15700
C3077       C  0.52495677  0.29984280  0.56811779     0.14400
C3078       C  0.54029428  0.31111780  0.57673640     0.01300
C3079       C  0.55155694  0.32067649  0.56072791     0.16300
C3080       C  0.05130274  0.31801666  0.53548437     0.25700
C3081       C  0.52936895  0.30815508  0.52802667    -0.40600
C3082       C  0.51962475  0.29835184  0.54409292     0.32800
C3083       C  0.54579443  0.31239558  0.60237903     0.01400
F3084       F  0.07505124  0.32984551  0.56728461    -0.12900
F3085       F  0.50487232  0.28722639  0.53652100    -0.13400
C3086       C  0.57812539  0.31242264  0.61127089     0.16300
C3087       C  0.58368887  0.31189531  0.63544498     0.25700
C3088       C  0.55694625  0.31129012  0.65141474    -0.40600
C3089       C  0.52446579  0.31189543  0.64252788     0.32700
C3090       C  0.51895360  0.31236719  0.61817867     0.14400
F3091       F  0.60446253  0.31228958  0.59646990    -0.12900
F3092       F  0.49810323  0.31143315  0.65726361    -0.13400
F3093       F  0.61551864  0.31178478  0.64317249    -0.15700
F3094       F  0.48739063  0.31250233  0.60995015    -0.14300
F3095       F  0.51544059  0.29014922  0.58303831    -0.14300
F3096       F  0.06152204  0.32752515  0.52043401    -0.15700
C3097       C  0.93549738  0.23983742  0.72057594     0.14400
C3098       C  0.97014879  0.23834814  0.71870241     0.01300
C3099       C  0.98320655  0.22573618  0.71574452     0.16300
C3100       C  0.96232168  0.21490444  0.71440805     0.25700
C3101       C  0.92758400  0.21629415  0.71641478    -0.40600
C3102       C  0.91444382  0.22891811  0.71967260     0.32800
C3103       C  0.48860849  0.25051477  0.71809621     0.01400
F3104       F  0.51214375  0.22457844  0.71180241    -0.12900
F3105       F  0.88127483  0.23074450  0.72168656    -0.13400
C3106       C  0.48731345  0.25884175  0.73763027     0.16300
C3107       C  0.50847111  0.26964859  0.73918935     0.25700
C3108       C  0.53197050  0.27224005  0.72151806    -0.40600
C3109       C  0.53403687  0.26371408  0.70232587     0.32700
C3110       C  0.51238046  0.25303880  0.70051192     0.14400
F3111       F  0.96871520  0.25642536  0.75666046    -0.12900
F3112       F  0.55571876  0.26614360  0.68464256    -0.13400
F3113       F  0.50601778  0.27760983  0.75808982    -0.15700
F3114       F  0.51386532  0.24542976  0.68110759    -0.14300
F3115       F  0.92191221  0.25191623  0.72287739    -0.14300
F3116       F  0.97654805  0.20296182  0.71165982    -0.15700
C3117       C  0.68575068  0.31501708  0.85966579     0.14400
C3118       C  0.66192413  0.30539640  0.85486985     0.01300
C3119       C  0.65654846  0.29540426  0.87139641     0.16300
C3120       C  0.67459946  0.29503190  0.89243376     0.25700
C3121       C  0.69874159  0.30461425  0.89733634    -0.40600
C3122       C  0.70400006  0.31464788  0.88068563     0.32800
C3123       C  0.64496691  0.30506697  0.83172103     0.01400
F3124       F  0.63401872  0.28589381  0.86699699    -0.12900
F3125       F  0.72592401  0.32436774  0.88508971    -0.13400
C3126       C  0.66065079  0.29893857  0.81286482     0.16300
C3127       C  0.64563346  0.29857857  0.79076382     0.25700
C3128       C  0.61425472  0.30442208  0.78683195    -0.40600
C3129       C  0.59829928  0.31043807  0.80598989     0.32700
C3130       C  0.61351801  0.31071311  0.82825012     0.14400
F3131       F  0.69088827  0.29332468  0.81586500    -0.12900
F3132       F  0.56826175  0.31622977  0.80317882    -0.13400
F3133       F  0.66238440  0.29263243  0.77314108    -0.15700
F3134       F  0.59775708  0.31662373  0.84635025    -0.14300
F3135       F  0.69124472  0.32480434  0.84394861    -0.14300
F3136       F  0.66860844  0.28517938  0.90793771    -0.15700
C3137       C  0.74842797  0.44246667  0.61146636     0.14400
C3138       C  0.76767276  0.43159285  0.60519800     0.01300
C3139       C  0.77967720  0.42321287  0.62294817     0.16300
C3140       C  0.77255193  0.42568454  0.64661433     0.25700
C3141       C  0.75331559  0.43661600  0.65295119    -0.40600
C3142       C  0.74127929  0.44495859  0.63504614     0.32800
C3143       C  0.77760842  0.42981656  0.58034138     0.01400
F3144       F  0.79819488  0.41259290  0.61731218    -0.12900
F3145       F  0.72325850  0.45576861  0.64035528    -0.13400
C3146       C  0.81079498  0.43160917  0.57396639     0.16300
C3147       C  0.82002507  0.43179660  0.55035688     0.25700
C3148       C  0.79619506  0.43021349  0.53243232    -0.40600
C3149       C  0.76319759  0.42758775  0.53890066     0.32700
C3150       C  0.75395759  0.42750006  0.56268915     0.14400
F3151       F  0.83412703  0.43385560  0.59063165    -0.12900
F3152       F  0.73965229  0.42567172  0.52227013    -0.13400
F3153       F  0.85243249  0.43378114  0.54509900    -0.15700
F3154       F  0.72179851  0.42542546  0.56850882    -0.14300
F3155       F  0.73750284  0.45095712  0.59472819    -0.14300
F3156       F  0.78384167  0.41721708  0.66325230    -0.15700
C3157       C  0.83961219  0.52017078  0.71307007     0.14400
C3158       C  0.85020135  0.50712209  0.71255223     0.01300
C3159       C  0.88434266  0.50438263  0.71151570     0.16300
C3160       C  0.90756951  0.51456644  0.71161323     0.25700
C3161       C  0.89699956  0.52768787  0.71270674    -0.40600
C3162       C  0.86264112  0.53033944  0.71314293     0.32800
C3163       C  0.82561226  0.49643946  0.71478319     0.01400
F3164       F  0.89516409  0.49181670  0.71054048    -0.12900
F3165       F  0.85108909  0.54278531  0.71466840    -0.13400
C3166       C  0.80053911  0.49477011  0.69788577     0.16300
C3167       C  0.77719685  0.48470859  0.70040234     0.25700
C3168       C  0.77876506  0.47615115  0.71980167    -0.40600
C3169       C  0.80335474  0.47808536  0.73694459     0.32700
C3170       C  0.82646798  0.48813759  0.73448308     0.14400
F3171       F  0.79941896  0.50259853  0.67856079    -0.12900
F3172       F  0.80511639  0.47014279  0.75610373    -0.13400
F3173       F  0.75435980  0.48286595  0.68324429    -0.15700
F3174       F  0.84967838  0.48982155  0.75144935    -0.14300
F3175       F  0.80685139  0.52306574  0.71460567    -0.14300
F3176       F  0.94030932  0.51156542  0.71072353    -0.15700
C3177       C  0.69684804  0.43994927  0.82873080     0.14400
C3178       C  0.66738591  0.44677724  0.83359188     0.01300
C3179       C  0.65178238  0.45370644  0.81526739     0.16300
C3180       C  0.66506293  0.45365651  0.79248754     0.25700
C3181       C  0.69438118  0.44663544  0.78742582    -0.40600
C3182       C  0.71021641  0.43988130  0.80600353     0.32800
C3183       C  0.65329580  0.44678399  0.85782939     0.01400
F3184       F  0.62382027  0.46069774  0.81951550    -0.12900
F3185       F  0.73833314  0.43292018  0.80217559    -0.13400
C3186       C  0.67209213  0.45151881  0.87668280     0.16300
C3187       C  0.65949012  0.45128374  0.89958338     0.25700
C3188       C  0.62756479  0.44627457  0.90434600    -0.40600
C3189       C  0.60866526  0.44157816  0.88535289     0.32700
C3190       C  0.62136465  0.44188010  0.86237105     0.14400
F3191       F  0.70281391  0.45646747  0.87289515    -0.12900
F3192       F  0.57794683  0.43660131  0.88895597    -0.13400
F3193       F  0.67910560  0.45574043  0.91715263    -0.15700
F3194       F  0.60275715  0.43704397  0.84458974    -0.14300
F3195       F  0.71234497  0.43302863  0.84595959    -0.14300
F3196       F  0.64904771  0.46051872  0.77542267    -0.15700
C3197       C  0.66907701  0.35736588  0.71261686     0.14400
C3198       C  0.64748696  0.36818234  0.71307000     0.01300
C3199       C  0.61329564  0.36609019  0.71390760     0.16300
C3200       C  0.60068001  0.35342818  0.71475829     0.25700
C3201       C  0.62208936  0.34246040  0.71484881    -0.40600
C3202       C  0.65649159  0.34458224  0.71335622     0.32800
C3203       C  0.66021558  0.38170320  0.71429119     0.01400
F3204       F  0.59203005  0.37638698  0.71479294    -0.12900
F3205       F  0.67797289  0.33435383  0.71317733    -0.13400
C3206       C  0.65273134  0.39089345  0.69655233     0.16300
C3207       C  0.66317312  0.40389965  0.69858897     0.25700
C3208       C  0.68129919  0.40782837  0.71836782    -0.40600
C3209       C  0.68834113  0.39864457  0.73619209     0.32700
C3210       C  0.67784428  0.38571262  0.73418697     0.14400
F3211       F  0.63593670  0.38717326  0.67706424    -0.12900
F3212       F  0.70538535  0.40224047  0.75566384    -0.13400
F3213       F  0.65703641  0.41245646  0.68077965    -0.15700
F3214       F  0.68440199  0.37713126  0.75188577    -0.14300
F3215       F  0.70233339  0.35920956  0.71163297    -0.14300
F3216       F  0.56728120  0.35200133  0.71568575    -0.15700
C3217       C  0.55754462  0.79953205  0.18242476     0.14400
C3218       C  0.53847965  0.81027676  0.17515337     0.01300
C3219       C  0.52724486  0.81928267  0.19184317     0.16300
C3220       C  0.53543204  0.81765902  0.21559443     0.25700
C3221       C  0.55479963  0.80690407  0.22300073    -0.40600
C3222       C  0.56559555  0.79781876  0.20608304     0.32800
C3223       C  0.52796711  0.81131019  0.15041664     0.01400
F3224       F  0.01113145  0.83078643  0.18598180    -0.12900
F3225       F  0.58364236  0.78713632  0.21239667    -0.13400
C3226       C  0.49623719  0.80714315  0.14418303     0.16300
C3227       C  0.48686173  0.80664311  0.12065867     0.25700
C3228       C  0.01118223  0.81092193  0.10358070    -0.40600
C3229       C  0.04424312  0.80975016  0.11108529     0.32700
C3230       C  0.55008813  0.81539969  0.13285104     0.14400
F3231       F  0.47466392  0.80304760  0.16094712    -0.12900
F3232       F  0.06895286  0.80782316  0.09534192    -0.13400
F3233       F  0.45602056  0.80220361  0.11561002    -0.15700
F3234       F  0.08385070  0.80838012  0.14198479    -0.14300
F3235       F  0.56773724  0.79051137  0.16659013    -0.14300
F3236       F  0.52497994  0.82675439  0.23118652    -0.15700
C3237       C  0.96793772  0.76451911  0.30099745     0.14400
C3238       C  0.97835456  0.75213067  0.29343732     0.01300
C3239       C  0.51399598  0.75045540  0.28729440     0.16300
C3240       C  0.53736171  0.76041949  0.28999594     0.25700
C3241       C  0.52766648  0.77285356  0.29801384    -0.40600
C3242       C  0.49428371  0.77476156  0.30460046     0.32800
C3243       C  0.95379422  0.74182251  0.28756834     0.01400
F3244       F  0.52431120  0.73860314  0.27951765    -0.12900
F3245       F  0.48385767  0.78638778  0.31331140    -0.13400
C3246       C  0.95551710  0.73542437  0.26581604     0.16300
C3247       C  0.93474403  0.72487775  0.26099918     0.25700
C3248       C  0.91108722  0.72073202  0.27752689    -0.40600
C3249       C  0.90760609  0.72771673  0.29855127     0.32700
C3250       C  0.92906129  0.73807233  0.30367312     0.14400
F3251       F  0.97780918  0.73923804  0.24931913    -0.12900
F3252       F  0.88524386  0.72386817  0.31496091    -0.13400
F3253       F  0.93839000  0.71845893  0.24036820    -0.15700
F3254       F  0.92691758  0.74389412  0.32495697    -0.14300
F3255       F  0.93522719  0.76721968  0.30368194    -0.14300
F3256       F  0.56924488  0.75797555  0.28384373    -0.15700
C3257       C  0.74306538  0.93482726  0.12640589     0.14400
C3258       C  0.77431178  0.93069696  0.11870310     0.01300
C3259       C  0.79822075  0.92693775  0.13545732     0.16300
C3260       C  0.79113931  0.92747154  0.15952811     0.25700
C3261       C  0.75987512  0.93174109  0.16735078    -0.40600
C3262       C  0.73584097  0.93532044  0.15036635     0.32800
C3263       C  0.78267983  0.93118178  0.09332710     0.01400
F3264       F  0.82856062  0.92276126  0.12845627    -0.12900
F3265       F  0.70531014  0.93957465  0.15680122    -0.13400
C3266       C  0.80898758  0.93902307  0.08567486     0.16300
C3267       C  0.81717413  0.93974403  0.06193086     0.25700
C3268       C  0.79899538  0.93267786  0.04498958    -0.40600
C3269       C  0.77228413  0.92491494  0.05267068     0.32700
C3270       C  0.76417600  0.92420185  0.07662457     0.14400
F3271       F  0.82651397  0.94625381  0.10124901    -0.12900
F3272       F  0.75401658  0.91799290  0.03709898    -0.13400
F3273       F  0.84319293  0.94740278  0.05570942    -0.15700
F3274       F  0.73851207  0.91655474  0.08356091    -0.14300
F3275       F  0.71980982  0.93887559  0.11070833    -0.14300
F3276       F  0.81500238  0.92387345  0.17508876    -0.15700
C3277       C  0.79383525  0.98892981  0.21082916     0.14400
C3278       C  0.81925772  0.99190730  0.22686033     0.01300
C3279       C  0.82240115  0.98436913  0.24744543     0.16300
C3280       C  0.80187748  0.97357934  0.25124699     0.25700
C3281       C  0.77745090  0.97023795  0.23471047    -0.40600
C3282       C  0.77291577  0.97824363  0.21482356     0.32800
C3283       C  0.84246954  0.00284600  0.22213976     0.01400
F3284       F  0.84556520  0.98740161  0.26380826    -0.12900
F3285       F  0.74985820  0.97518365  0.19840847    -0.13400
C3286       C  0.83009892  0.01546286  0.21798050     0.16300
C3287       C  0.85163651  0.02584963  0.21376894     0.25700
C3288       C  0.88633238  0.02393706  0.21393869    -0.40600
C3289       C  0.89876858  0.01126178  0.21806495     0.32700
C3290       C  0.87699633  0.00079692  0.22197524     0.14400
F3291       F  0.79701752  0.01784665  0.21878270    -0.12900
F3292       F  0.93188751  0.00896901  0.21824759    -0.13400
F3293       F  0.83822488  0.03791237  0.21040345    -0.15700
F3294       F  0.88963808  0.98861941  0.22542038    -0.14300
F3295       F  0.79031183  0.99597724  0.19069833    -0.14300
F3296       F  0.80629074  0.96622271  0.27094041    -0.15700
C3297       C  0.71198085  0.87469985  0.24440978     0.14400
C3298       C  0.67811727  0.87239850  0.24761798     0.01300
C3299       C  0.65541916  0.88266920  0.24407768     0.16300
C3300       C  0.66656877  0.89529510  0.23889714     0.25700
C3301       C  0.70070797  0.89784431  0.23719053    -0.40600
C3302       C  0.72322952  0.88727635  0.23917365     0.32800
C3303       C  0.66663286  0.85964115  0.25670551     0.01400
F3304       F  0.62241349  0.88052238  0.24639986    -0.12900
F3305       F  0.75638111  0.88912760  0.23696625    -0.13400
C3306       C  0.65033476  0.85907082  0.27842770     0.16300
C3307       C  0.63763672  0.84726454  0.28675959     0.25700
C3308       C  0.64134011  0.83576615  0.27362539    -0.40600
C3309       C  0.65921297  0.83618640  0.25244253     0.32700
C3310       C  0.67172007  0.84807875  0.24400112     0.14400
F3311       F  0.64652843  0.87002139  0.29151617    -0.12900
F3312       F  0.66275070  0.82528183  0.23920528    -0.13400
F3313       F  0.62129960  0.84710545  0.30757959    -0.15700
F3314       F  0.68749943  0.84841224  0.22297748    -0.14300
F3315       F  0.73436067  0.86492084  0.24771035    -0.14300
F3316       F  0.64399873  0.90508332  0.23668335    -0.15700
C3317       C  0.75058607  0.80704679  0.64323158     0.14400
C3318       C  0.78332167  0.80975295  0.64989269     0.01300
C3319       C  0.80700120  0.81229357  0.63233348     0.16300
C3320       C  0.79840606  0.81159197  0.60854286     0.25700
C3321       C  0.76582978  0.80843195  0.60183870    -0.40600
C3322       C  0.74184495  0.80650805  0.61954448     0.32800
C3323       C  0.79305865  0.80902950  0.67502385     0.01400
F3324       F  0.83862099  0.81534456  0.63823944    -0.12900
F3325       F  0.70978239  0.80394449  0.61406542    -0.13400
C3326       C  0.81857595  0.80053259  0.68211881     0.16300
C3327       C  0.82694669  0.79923613  0.70580066     0.25700
C3328       C  0.80959682  0.80627878  0.72315550    -0.40600
C3329       C  0.78398172  0.81481209  0.71599470     0.32700
C3330       C  0.77596350  0.81622493  0.69216761     0.14400
F3331       F  0.83489405  0.79314105  0.66611906    -0.12900
F3332       F  0.76655305  0.82179826  0.73197648    -0.13400
F3333       F  0.85205793  0.79096786  0.71160160    -0.15700
F3334       F  0.75158129  0.82470721  0.68581938    -0.14300
F3335       F  0.72720414  0.80437176  0.65967830    -0.14300
F3336       F  0.82220595  0.81370690  0.59215527    -0.15700
C3337       C  0.80675332  0.74993906  0.55044218     0.14400
C3338       C  0.83270047  0.74892082  0.53407135     0.01300
C3339       C  0.83504789  0.75817529  0.51588542     0.16300
C3340       C  0.81278218  0.76859128  0.51459951     0.25700
C3341       C  0.78762872  0.77000118  0.53151726    -0.40600
C3342       C  0.78429299  0.76041638  0.54916511     0.32800
C3343       C  0.85762940  0.73831768  0.53581544     0.01400
F3344       F  0.85919670  0.75717983  0.49941625    -0.12900
F3345       F  0.76069293  0.76161406  0.56596732    -0.13400
C3346       C  0.84798004  0.72521948  0.53372397     0.16300
C3347       C  0.87173603  0.71525036  0.53372417     0.25700
C3348       C  0.90574123  0.71820775  0.53578825    -0.40600
C3349       C  0.91529525  0.73136449  0.53813184     0.32700
C3350       C  0.89143474  0.74131128  0.53822990     0.14400
F3351       F  0.81558988  0.72212509  0.53065465    -0.12900
F3352       F  0.94771503  0.73463672  0.54029931    -0.13400
F3353       F  0.86142649  0.70275190  0.53063421    -0.15700
F3354       F  0.90134105  0.75391519  0.54058150    -0.14300
F3355       F  0.80412994  0.74112657  0.56826182    -0.14300
F3356       F  0.81620350  0.77746911  0.49693322    -0.15700
C3357       C  0.70466110  0.81012988  0.42698448     0.14400
C3358       C  0.67617387  0.80274238  0.42226659     0.01300
C3359       C  0.66313371  0.79464721  0.43990027     0.16300
C3360       C  0.67783634  0.79413511  0.46212168     0.25700
C3361       C  0.70592298  0.80181920  0.46727268    -0.40600
C3362       C  0.71938681  0.80971755  0.44928364     0.32800
C3363       C  0.66017171  0.80326177  0.39886822     0.01400
F3364       F  0.63617022  0.78713915  0.43549749    -0.12900
F3365       F  0.74620474  0.81734713  0.45338238    -0.13400
C3366       C  0.67618801  0.79789241  0.37937207     0.16300
C3367       C  0.66059347  0.79776672  0.35745006     0.25700
C3368       C  0.62848506  0.80308202  0.35449234    -0.40600
C3369       C  0.61278462  0.80872815  0.37409489     0.32700
C3370       C  0.62844825  0.80873311  0.39608078     0.14400
F3371       F  0.70682202  0.79252798  0.38168206    -0.12900
F3372       F  0.58228209  0.81423516  0.37209843    -0.13400
F3373       F  0.67725499  0.79248963  0.33910924    -0.15700
F3374       F  0.61276020  0.81418679  0.41468374    -0.14300
F3375       F  0.71772218  0.81800947  0.41012560    -0.14300
F3376       F  0.66431998  0.78611633  0.47859051    -0.15700
C3377       C  0.54145819  0.91501620  0.58066087     0.14400
C3378       C  0.54332720  0.92581771  0.59584466     0.01300
C3379       C  0.55052829  0.93819908  0.58626910     0.16300
C3380       C  0.55686169  0.93970410  0.56228612     0.25700
C3381       C  0.55546721  0.92891556  0.54712303    -0.40600
C3382       C  0.54724456  0.91657124  0.55647943     0.32800
C3383       C  0.53702984  0.92444039  0.62154019     0.01400
F3384       F  0.55100540  0.94893714  0.60015254    -0.12900
F3385       F  0.54638251  0.90590632  0.54243230    -0.13400
C3386       C  0.56001984  0.92922571  0.63802081     0.16300
C3387       C  0.55215416  0.92962009  0.66199282     0.25700
C3388       C  0.52112798  0.92526075  0.66992421    -0.40600
C3389       C  0.99723395  0.91982112  0.65315284     0.32700
C3390       C  0.50685517  0.91932755  0.62972718     0.14400
F3391       F  0.58978901  0.93388490  0.63078542    -0.12900
F3392       F  0.96646733  0.91618250  0.66020295    -0.13400
F3393       F  0.57398830  0.93505209  0.67718709    -0.15700
F3394       F  0.48412276  0.91459554  0.61442468    -0.14300
F3395       F  0.53507306  0.90288806  0.58933854    -0.14300
F3396       F  0.56413398  0.95180523  0.55382528    -0.15700
C3397       C  0.50819624  0.98608116  0.47685632     0.14400
C3398       C  0.97207879  0.98344048  0.47459643     0.01300
C3399       C  0.96179511  0.97053710  0.47089755     0.16300
C3400       C  0.48867919  0.96034810  0.46824462     0.25700
C3401       C  0.52244879  0.96305142  0.47242664    -0.40600
C3402       C  0.53196251  0.97608999  0.47648934     0.32800
C3403       C  0.94728331  0.99410512  0.47585534     0.01400
F3404       F  0.92911494  0.96767598  0.46877159    -0.12900
F3405       F  0.56415362  0.97920245  0.48040555    -0.13400
C3406       C  0.92505508  0.99631905  0.45719739     0.16300
C3407       C  0.90264209  0.00675565  0.45798143     0.25700
C3408       C  0.90264993  0.01527991  0.47719614    -0.40600
C3409       C  0.92398416  0.01278675  0.49621460     0.32700
C3410       C  0.94590133  0.00220718  0.49565460     0.14400
F3411       F  0.92625680  0.98879566  0.43767127    -0.12900
F3412       F  0.92399064  0.02076990  0.51516469    -0.13400
F3413       F  0.88273615  0.00911351  0.43919529    -0.15700
F3414       F  0.96607250  0.99995637  0.51433977    -0.14300
F3415       F  0.51820871  0.99857475  0.48046566    -0.14300
F3416       F  0.47811437  0.94798380  0.46407286    -0.15700
C3417       C  0.68661929  0.92492227  0.33800232     0.14400
C3418       C  0.67218320  0.93646235  0.34670316     0.01300
C3419       C  0.67518720  0.94809045  0.33355656     0.16300
C3420       C  0.69168128  0.94812656  0.31195254     0.25700
C3421       C  0.70593594  0.93659160  0.30319238    -0.40600
C3422       C  0.70353105  0.92500421  0.31648618     0.32800
C3423       C  0.65461103  0.93646709  0.36966807     0.01400
F3424       F  0.66122657  0.95935123  0.34131607    -0.12900
F3425       F  0.71594274  0.91362182  0.30802885    -0.13400
C3426       C  0.66575455  0.94451543  0.38788340     0.16300
C3427       C  0.65015464  0.94432643  0.40979689     0.25700
C3428       C  0.62291630  0.93600971  0.41414996    -0.40600
C3429       C  0.61115437  0.92821385  0.39558720     0.32700
C3430       C  0.62688927  0.92843892  0.37360836     0.14400
F3431       F  0.69248955  0.95234946  0.38464970    -0.12900
F3432       F  0.58480048  0.92017849  0.39873055    -0.13400
F3433       F  0.66213665  0.95225590  0.42681112    -0.15700
F3434       F  0.61490883  0.92085671  0.35608634    -0.14300
F3435       F  0.68421342  0.91355620  0.35032086    -0.14300
F3436       F  0.69344390  0.95943415  0.29938871    -0.15700
C3437       C  0.64985802  0.87826545  0.49157302     0.14400
C3438       C  0.66228556  0.87764116  0.51457567     0.01300
C3439       C  0.66598514  0.88921675  0.52745611     0.16300
C3440       C  0.65595089  0.90119066  0.51783361     0.25700
C3441       C  0.64169035  0.90168935  0.49533576    -0.40600
C3442       C  0.63945667  0.89018447  0.48206910     0.32800
C3443       C  0.67288853  0.86494934  0.52449128     0.01400
F3444       F  0.67801765  0.88883663  0.54970878    -0.12900
F3445       F  0.62644431  0.89045189  0.46007923    -0.13400
C3446       C  0.70607428  0.86311214  0.53080595     0.16300
C3447       C  0.71765369  0.85069871  0.53666565     0.25700
C3448       C  0.69637906  0.83978074  0.53576813    -0.40600
C3449       C  0.66247389  0.84179241  0.53139724     0.32700
C3450       C  0.65079698  0.85433962  0.52578625     0.14400
F3451       F  0.72789843  0.87318016  0.52965544    -0.12900
F3452       F  0.64109553  0.83157167  0.53101840    -0.13400
F3453       F  0.75025710  0.84929596  0.54203611    -0.15700
F3454       F  0.61822203  0.85606674  0.52067386    -0.14300
F3455       F  0.64769474  0.86729922  0.47834870    -0.14300
F3456       F  0.65788692  0.91211411  0.53117381    -0.15700
loop_ 
_geom_bond_atom_site_label_1 
_geom_bond_atom_site_label_2 
_geom_bond_distance 
_geom_bond_site_symmetry_2 
_ccdc_geom_bond_type 
O1            V9   1.910       .  S
O1           C11   1.268       .  A
O2            V9   1.913       .  S
O2           C12   1.268       .  A
O3            V9   1.886       .  S
O3           C13   1.262       .  A
O4            V9   1.880       .  S
O4           C14   1.260       .  A
O5           V10   1.904       .  S
O5           C14   1.266       .  A
O6           V10   1.906       .  S
O6           C13   1.267       .  A
O7           V10   1.891       .  S
O7           C12   1.262       .  A
O8           V10   1.896       .  S
O8           C11   1.263       .  A
V9           V10   2.084       .  T
C11        C1700   1.491       .  S
C12        C1653   1.481       .  S
C13        C1673   1.485       .  S
C14        C1713   1.468       .  S
O15          V23   1.910       .  S
O15          C25   1.268       .  A
O16          V23   1.910       .  S
O16          C26   1.268       .  A
O17          V23   1.879       .  S
O17          C27   1.260       .  A
O18          V23   1.875       .  S
O18          C28   1.259       .  A
O19          V24   1.912       .  S
O19          C28   1.269       .  A
O20          V24   1.914       .  S
O20          C27   1.268       .  A
O21          V24   1.886       .  S
O21          C26   1.262       .  A
O22          V24   1.892       .  S
O22          C25   1.263       .  A
V23          V24   2.082       .  T
C25        C1633   1.484       .  S
C26        C1593   1.486       .  S
C27        C1613   1.473       .  S
C28        C1720   1.479       .  S
O29          V37   1.922       .  S
O29          C39   1.271       .  A
O30          V37   1.923       .  S
O30          C40   1.271       .  A
O31          V37   1.889       .  S
O31          C41   1.261       .  A
O32          V37   1.883       .  S
O32          C42   1.260       .  A
O33          V38   1.912       .  S
O33          C42   1.269       .  A
O34          V38   1.914       .  S
O34          C41   1.268       .  A
O35          V38   1.876       .  S
O35          C40   1.259       .  A
O36          V38   1.883       .  S
O36          C39   1.260       .  A
V37          V38   2.081       .  T
C39        C1693   1.491       .  S
C40        C1533   1.484       .  S
C41        C1553   1.477       .  S
C42        C1573   1.485       .  S
O43          V51   1.914       .  S
O43          C53   1.269       .  A
O44          V51   1.914       .  S
O44          C54   1.268       .  A
O45          V51   1.891       .  S
O45          C55   1.262       .  A
O46          V51   1.885       .  S
O46          C56   1.262       .  A
O47          V52   1.907       .  S
O47          C56   1.266       .  A
O48          V52   1.907       .  S
O48          C55   1.268       .  A
O49          V52   1.883       .  S
O49          C54   1.261       .  A
O50          V52   1.889       .  S
O50          C53   1.262       .  A
V51          V52   2.084       .  T
C53        C1640   1.486       .  S
C54        C1493   1.480       .  S
C55        C1513   1.488       .  S
C56        C1580   1.478       .  S
O57          V65   1.913       .  S
O57          C67   1.269       .  A
O58          V65   1.917       .  S
O58          C68   1.269       .  A
O59          V65   1.883       .  S
O59          C69   1.260       .  A
O60          V65   1.877       .  S
O60          C70   1.258       .  A
O61          V66   1.913       .  S
O61          C70   1.268       .  A
O62          V66   1.915       .  S
O62          C69   1.268       .  A
O63          V66   1.892       .  S
O63          C68   1.263       .  A
O64          V66   1.906       .  S
O64          C67   1.266       .  A
V65          V66   2.086       .  T
C67        C1453   1.500       .  S
C68        C1413   1.487       .  S
C69        C1440   1.476       .  S
C70        C1480   1.467       .  S
O71          V79   1.925       .  S
O71          C81   1.271       .  A
O72          V79   1.925       .  S
O72          C82   1.272       .  A
O73          V79   1.889       .  S
O73          C83   1.261       .  A
O74          V79   1.876       .  S
O74          C84   1.259       .  A
O75          V80   1.916       .  S
O75          C84   1.269       .  A
O76          V80   1.918       .  S
O76          C83   1.270       .  A
O77          V80   1.884       .  S
O77          C82   1.260       .  A
O78          V80   1.891       .  S
O78          C81   1.263       .  A
V79          V80   2.082       .  T
C81        C1400   1.495       .  S
C82        C1360   1.491       .  S
C83        C1380   1.482       .  S
C84        C1473   1.482       .  S
O85          V93   1.917       .  S
O85          C95   1.269       .  A
O86          V93   1.910       .  S
O86          C96   1.268   1_556  A
O87          V93   1.886       .  S
O87          C97   1.261       .  A
O88          V93   1.880       .  S
O88          C98   1.259       .  A
O89          V94   1.912       .  S
O89          C98   1.266       .  A
O90          V94   1.916       .  S
O90          C97   1.269       .  A
O91          V94   1.899   1_554  S
O91          C96   1.264       .  A
O92          V94   1.900       .  S
O92          C95   1.265       .  A
V93          V94   2.084       .  T
C95        C1460   1.499       .  S
C96        C1300   1.490       .  S
C97        C1313   1.489       .  S
C98        C1333   1.463       .  S
O99         V107   1.930       .  S
O99         C109   1.273       .  A
O100        V107   1.930       .  S
O100        C110   1.273   1_556  A
O101        V107   1.890       .  S
O101        C111   1.261       .  A
O102        V107   1.876       .  S
O102        C112   1.258       .  A
O103        V108   1.922       .  S
O103        C112   1.271       .  A
O104        V108   1.928       .  S
O104        C111   1.273       .  A
O105        V108   1.876       .  S
O105        C110   1.258   1_556  A
O106        V108   1.889       .  S
O106        C109   1.261       .  A
V107        V108   2.082       .  T
C109       C1393   1.498       .  S
C110       C1253   1.493       .  S
C111       C1280   1.494       .  S
C112       C1340   1.482       .  S
O113        V121   1.931       .  S
O113        C123   1.273       .  A
O114        V121   1.932       .  S
O114        C124   1.273       .  A
O115        V121   1.870       .  S
O115        C125   1.257       .  A
O116        V121   1.878       .  S
O116        C126   1.259       .  A
O117        V122   1.910       .  S
O117        C126   1.268       .  A
O118        V122   1.909       .  S
O118        C125   1.268       .  A
O119        V122   1.883       .  S
O119        C124   1.260       .  A
O120        V122   1.891       .  S
O120        C123   1.262       .  A
V121        V122   2.083       .  T
C123       C1213   1.498       .  S
C124       C1180   1.498       .  S
C125       C1233   1.469       .  S
C126       C1193   1.480       .  S
O127        V135   1.919       .  S
O127        C137   1.269       .  A
O128        V135   1.920       .  S
O128        C138   1.270       .  A
O129        V135   1.871       .  S
O129        C139   1.258       .  A
O130        V135   1.883       .  S
O130        C140   1.260       .  A
O131        V136   1.911       .  S
O131        C140   1.268       .  A
O132        V136   1.909       .  S
O132        C139   1.268       .  A
O133        V136   1.889       .  S
O133        C138   1.261       .  A
O134        V136   1.894       .  S
O134        C137   1.264       .  A
V135        V136   2.085       .  T
C137       C1153   1.495       .  S
C138       C1133   1.487       .  S
C139       C1240   1.477       .  S
C140       C1680   1.472       .  S
O141        V149   1.912       .  S
O141        C151   1.268       .  A
O142        V149   1.914       .  S
O142        C152   1.269       .  A
O143        V149   1.878       .  S
O143        C153   1.258       .  A
O144        V149   1.882       .  S
O144        C154   1.260       .  A
O145        V150   1.918       .  S
O145        C154   1.270       .  A
O146        V150   1.916       .  S
O146        C153   1.268       .  A
O147        V150   1.886       .  S
O147        C152   1.261       .  A
O148        V150   1.893       .  S
O148        C151   1.263       .  A
V149        V150   2.084       .  T
C151       C1160   1.488       .  S
C152       C1080   1.486       .  S
C153       C1120   1.471       .  S
C154       C1093   1.489       .  S
O155        V163   1.929       .  S
O155        C165   1.273       .  A
O156        V163   1.928       .  S
O156        C166   1.272       .  A
O157        V163   1.873       .  S
O157        C167   1.257       .  A
O158        V163   1.884       .  S
O158        C168   1.260       .  A
O159        V164   1.930       .  S
O159        C168   1.273       .  A
O160        V164   1.925       .  S
O160        C167   1.272       .  A
O161        V164   1.884       .  S
O161        C166   1.260       .  A
O162        V164   1.889       .  S
O162        C165   1.261       .  A
V163        V164   2.081       .  T
C165       C1220   1.499       .  S
C166       C1053   1.489       .  S
C167       C1113   1.486       .  S
C168       C1373   1.497       .  S
O169        V177   1.920   1_554  S
O169        C179   1.271       .  A
O170        V177   1.921       .  S
O170        C180   1.270       .  A
O171        V177   1.881       .  S
O171        C181   1.260       .  A
O172        V177   1.886       .  S
O172        C182   1.260       .  A
O173        V178   1.918       .  S
O173        C182   1.270       .  A
O174        V178   1.914       .  S
O174        C181   1.268       .  A
O175        V178   1.888       .  S
O175        C180   1.262       .  A
O176        V178   1.892   1_554  S
O176        C179   1.262       .  A
V177        V178   2.080       .  T
C179       C1020   1.496       .  S
C180       C1000   1.487       .  S
C181       C1033   1.474       .  S
C182       C1320   1.480       .  S
O183        V191   1.921       .  S
O183        C193   1.270       .  A
O184        V191   1.922       .  S
O184        C194   1.271   1_554  A
O185        V191   1.886       .  S
O185        C195   1.260       .  A
O186        V191   1.898       .  S
O186        C196   1.264       .  A
O187        V192   1.911       .  S
O187        C196   1.268       .  A
O188        V192   1.908       .  S
O188        C195   1.266       .  A
O189        V192   1.884   1_556  S
O189        C194   1.260       .  A
O190        V192   1.889       .  S
O190        C193   1.262       .  A
V191        V192   2.084       .  T
C193        C973   1.487       .  S
C194        C933   1.492       .  S
C195       C1040   1.466       .  S
C196        C953   1.495       .  S
O197        V205   1.915       .  S
O197        C207   1.269       .  A
O198        V205   1.915       .  S
O198        C208   1.269       .  A
O199        V205   1.878       .  S
O199        C209   1.260       .  A
O200        V205   1.887       .  S
O200        C210   1.261       .  A
O201        V206   1.908       .  S
O201        C210   1.268       .  A
O202        V206   1.908       .  S
O202        C209   1.266       .  A
O203        V206   1.895       .  S
O203        C208   1.263       .  A
O204        V206   1.896       .  S
O204        C207   1.264       .  A
V205        V206   2.084       .  T
C207       C1013   1.496       .  S
C208        C873   1.489       .  S
C209        C913   1.472       .  S
C210        C893   1.482       .  S
O211        V219   1.919       .  S
O211        C221   1.269       .  A
O212        V219   1.918       .  S
O212        C222   1.270       .  A
O213        V219   1.879       .  S
O213        C223   1.260       .  A
O214        V219   1.887       .  S
O214        C224   1.261       .  A
O215        V220   1.913       .  S
O215        C224   1.268       .  A
O216        V220   1.910       .  S
O216        C223   1.268       .  A
O217        V220   1.886       .  S
O217        C222   1.262       .  A
O218        V220   1.892       .  S
O218        C221   1.263       .  A
V219        V220   2.080       .  T
C221        C980   1.488       .  S
C222        C853   1.490       .  S
C223        C920   1.481       .  S
C224       C1520   1.476       .  S
O225        V233   1.917       .  S
O225        C235   1.270       .  A
O226       V1961   1.920       .  S
O226       C1964   1.270       .  A
O227       V1961   1.878       .  S
O227        C237   1.259       .  A
O228        V233   1.874       .  S
O228        C238   1.258       .  A
O229        V234   1.904       .  S
O229        C238   1.267       .  A
O230        V234   1.912       .  S
O230       C1965   1.268       .  A
O231        V234   1.892       .  S
O231        C236   1.262       .  A
O232        V234   1.894       .  S
O232        C235   1.263       .  A
V233       O1954   1.919       .  S
V233       O1955   1.875       .  S
V233        V234   2.081       .  T
C235        C813   1.495       .  S
C236       O1954   1.270       .  A
C236       C3388   1.483       .  S
C237       O1958   1.268   1_455  A
C237       C1100   1.471       .  S
C238        C833   1.467       .  S
O239        V247   1.912       .  S
O239        C249   1.268       .  A
O240        V247   1.915       .  S
O240        C250   1.269       .  A
O241        V247   1.886       .  S
O241        C251   1.261       .  A
O242        V247   1.879       .  S
O242        C252   1.259       .  A
O243        V248   1.898       .  S
O243        C252   1.264       .  A
O244        V248   1.900       .  S
O244        C251   1.266       .  A
O245        V248   1.882       .  S
O245        C250   1.260       .  A
O246        V248   1.884       .  S
O246        C249   1.262       .  A
V247        V248   2.085       .  T
C249        C793   1.487       .  S
C250       C1600   1.487       .  S
C251        C773   1.478       .  S
C252        C840   1.457       .  S
O253        V261   1.921       .  S
O253        C263   1.271       .  A
O254        V261   1.922   1_554  S
O254        C264   1.271       .  A
O255        V261   1.884       .  S
O255        C265   1.260       .  A
O256        V261   1.879       .  S
O256        C266   1.258       .  A
O257        V262   1.920       .  S
O257        C266   1.269       .  A
O258        V262   1.921       .  S
O258        C265   1.271       .  A
O259        V262   1.878   1_554  S
O259        C264   1.259       .  A
O260        V262   1.890       .  S
O260        C263   1.261       .  A
V261        V262   2.083       .  T
C263        C820   1.496       .  S
C264       C1540   1.486       .  S
C265        C733   1.493       .  S
C266        C760   1.474       .  S
O267        V275   1.915   1_556  S
O267        C277   1.270       .  A
O268       V2003   1.920       .  S
O268       C2006   1.270       .  A
O269       V2003   1.884       .  S
O269       C2007   1.260       .  A
O270        V275   1.880       .  S
O270        C280   1.260       .  A
O271        V276   1.921       .  S
O271        C280   1.270       .  A
O272        V276   1.922       .  S
O272        C279   1.270       .  A
O273        V276   1.880       .  S
O273        C278   1.260       .  A
O274        V276   1.883       .  S
O274        C277   1.260   1_554  A
V275       O1996   1.917       .  S
V275       O1997   1.883       .  S
V275        V276   2.082       .  T
C277        C800   1.488       .  S
C278       O1996   1.270       .  A
C278       C1500   1.488       .  S
C279       O1997   1.260       .  A
C279       C2688   1.482       .  S
C280        C753   1.482       .  S
O281        V289   1.923       .  S
O281        C291   1.272       .  A
O282        V289   1.924       .  S
O282        C292   1.271       .  A
O283        V289   1.877       .  S
O283       C2021   1.258       .  A
O284        V289   1.889       .  S
O284        C294   1.262       .  A
O285        V290   1.913       .  S
O285        C294   1.269       .  A
O286       V2018   1.907   1_455  S
O286        C293   1.267   1_455  A
O287        V290   1.886       .  S
O287        C292   1.261       .  A
O288       V2018   1.892       .  S
O288       C2019   1.262       .  A
V289        V290   2.082       .  T
V290       O2014   1.908       .  S
V290       O2016   1.892       .  S
C291       O2016   1.262       .  A
C291       C2421   1.499       .  S
C292        C993   1.490       .  S
C293       O2011   1.258       .  A
C293        C713   1.461   1_655  S
C294       C1433   1.487       .  S
O295        V303   1.915       .  S
O295        C305   1.269       .  A
O296        V303   1.918       .  S
O296        C306   1.270       .  A
O297        V303   1.877       .  S
O297        C307   1.260       .  A
O298        V303   1.883       .  S
O298        C308   1.260       .  A
O299        V304   1.906       .  S
O299        C308   1.266       .  A
O300        V304   1.904       .  S
O300        C307   1.266       .  A
O301        V304   1.891       .  S
O301        C306   1.263       .  A
O302        V304   1.893       .  S
O302        C305   1.263       .  A
V303        V304   2.082       .  T
C305        C673   1.491       .  S
C306        C940   1.492       .  S
C307        C720   1.471       .  S
C308        C780   1.471       .  S
O309        V317   1.926       .  S
O309        C319   1.272       .  A
O310        V317   1.924       .  S
O310        C320   1.272       .  A
O311        V317   1.876       .  S
O311        C321   1.258       .  A
O312        V317   1.884       .  S
O312        C322   1.260       .  A
O313        V318   1.919       .  S
O313        C322   1.270       .  A
O314        V318   1.914       .  S
O314        C321   1.269       .  A
O315        V318   1.884       .  S
O315        C320   1.260       .  A
O316        V318   1.889       .  S
O316        C319   1.262       .  A
V317        V318   2.079       .  T
C319        C700   1.499       .  S
C320        C880   1.488       .  S
C321        C660   1.475       .  S
C322        C633   1.482       .  S
O323        V331   1.913       .  S
O323        C333   1.268       .  A
O324        V331   1.914       .  S
O324        C334   1.268       .  A
O325        V331   1.882       .  S
O325        C335   1.261       .  A
O326        V331   1.891       .  S
O326        C336   1.262       .  A
O327        V332   1.907       .  S
O327        C336   1.268       .  A
O328       V2060   1.902   1_455  S
O328       C2063   1.264       .  A
O329        V332   1.895       .  S
O329        C334   1.264       .  A
O330        V332   1.898       .  S
O330        C333   1.265       .  A
V331        V332   2.083       .  T
V332       O2056   1.907       .  S
C333        C680   1.495       .  S
C334        C860   1.493       .  S
C335       O2056   1.265       .  A
C335       C2381   1.467       .  S
C336       C1620   1.484       .  S
O337        V345   1.922       .  S
O337        C347   1.271       .  A
O338        V345   1.924       .  S
O338        C348   1.271       .  A
O339        V345   1.887       .  S
O339        C349   1.261       .  A
O340        V345   1.878       .  S
O340        C350   1.259       .  A
O341        V346   1.913       .  S
O341        C350   1.268       .  A
O342        V346   1.916       .  S
O342        C349   1.270       .  A
O343        V346   1.883       .  S
O343        C348   1.261       .  A
O344        V346   1.886       .  S
O344        C347   1.261       .  A
V345        V346   2.085       .  T
C347        C600   1.490       .  S
C348       C1420   1.489       .  S
C349        C640   1.485       .  S
C350        C620   1.473       .  S
O351        V359   1.925       .  S
O351        C361   1.271       .  A
O352       V2087   1.923       .  S
O352       C2090   1.270       .  A
O353       V2087   1.880       .  S
O353        C363   1.260       .  A
O354        V359   1.875       .  S
O354        C364   1.258       .  A
O355        V360   1.914       .  S
O355        C364   1.269       .  A
O356        V360   1.914       .  S
O356       C2091   1.268       .  A
O357        V360   1.881       .  S
O357        C362   1.260       .  A
O358        V360   1.885       .  S
O358        C361   1.261       .  A
V359       O2080   1.923       .  S
V359       O2081   1.880       .  S
V359        V360   2.085       .  T
C361        C573   1.493       .  S
C362       O2080   1.270       .  A
C362       C3081   1.483       .  S
C363       O2084   1.267       .  A
C363       C1200   1.472       .  S
C364        C613   1.480       .  S
O365        V373   1.921       .  S
O365        C375   1.271       .  A
O366       V2101   1.923       .  S
O366       C2104   1.271       .  A
O367       V2101   1.885       .  S
O367        C377   1.261       .  A
O368        V373   1.882       .  S
O368        C378   1.260       .  A
O369        V374   1.906       .  S
O369        C378   1.267       .  A
O370        V374   1.909       .  S
O370       C2105   1.267       .  A
O371        V374   1.878       .  S
O371        C376   1.259       .  A
O372        V374   1.887       .  S
O372        C375   1.261       .  A
V373       O2094   1.923       .  S
V373       O2095   1.886       .  S
V373        V374   2.084       .  T
C375        C593   1.495       .  S
C376       O2094   1.271       .  A
C376       C3021   1.489       .  S
C377       O2098   1.267   1_455  A
C377        C900   1.476       .  S
C378        C553   1.473       .  S
O379        V387   1.915       .  S
O379        C389   1.269       .  A
O380        V387   1.917       .  S
O380        C390   1.270       .  A
O381        V387   1.884       .  S
O381        C391   1.260       .  A
O382        V387   1.874       .  S
O382        C392   1.259       .  A
O383        V388   1.915       .  S
O383        C392   1.269       .  A
O384        V388   1.917       .  S
O384        C391   1.269       .  A
O385        V388   1.891       .  S
O385        C390   1.262       .  A
O386        V388   1.895       .  S
O386        C389   1.263       .  A
V387        V388   2.082       .  T
C389        C580   1.490       .  S
C390       C1260   1.493       .  S
C391        C533   1.483       .  S
C392        C560   1.482       .  S
O393        V401   1.911   1_554  S
O393        C403   1.268       .  A
O394        V401   1.910       .  S
O394        C404   1.268       .  A
O395        V401   1.880       .  S
O395        C405   1.260       .  A
O396        V401   1.887       .  S
O396        C406   1.260       .  A
O397        V402   1.915       .  S
O397        C406   1.268       .  A
O398        V402   1.913       .  S
O398        C405   1.269       .  A
O399        V402   1.888       .  S
O399        C404   1.262       .  A
O400        V402   1.900       .  S
O400        C403   1.265   1_556  A
V401        V402   2.083       .  T
C403        C493   1.496       .  S
C404       C1073   1.483       .  S
C405        C513   1.482       .  S
C406        C740   1.474       .  S
O407        V415   1.930   1_554  S
O407        C417   1.273       .  A
O408        V415   1.927       .  S
O408        C418   1.271       .  A
O409        V415   1.882       .  S
O409       C2147   1.260       .  A
O410        V415   1.896       .  S
O410        C420   1.263       .  A
O411       V2144   1.924       .  S
O411        C420   1.271       .  A
O412        V416   1.915       .  S
O412        C419   1.268       .  A
O413       V2144   1.881       .  S
O413        C418   1.259       .  A
O414        V416   1.891       .  S
O414       C2145   1.262   1_556  A
V415       V2144   2.082       .  T
V416       O2139   1.917       .  S
V416       O2141   1.884       .  S
V416       V2143   2.085       .  T
C417       O2142   1.262   1_554  A
C417       C2201   1.504       .  S
C418       C1060   1.483       .  S
C419       O2137   1.259       .  A
C419        C520   1.474       .  S
C420       C1273   1.500       .  S
O421        V429   1.933       .  S
O421        C431   1.274       .  A
O422        V429   1.931       .  S
O422        C432   1.273       .  A
O423        V429   1.876       .  S
O423        C433   1.258       .  A
O424        V429   1.883       .  S
O424        C434   1.260       .  A
O425        V430   1.920       .  S
O425        C434   1.271       .  A
O426       V2158   1.914       .  S
O426       C2161   1.270       .  A
O427        V430   1.879       .  S
O427        C432   1.259       .  A
O428       V2158   1.885       .  S
O428       C2159   1.260       .  A
V429        V430   2.081       .  T
V430       O2154   1.914       .  S
V430       O2156   1.885       .  S
C431       O2156   1.260       .  A
C431        C500   1.502       .  S
C432       C1140   1.487       .  S
C433       O2154   1.270       .  A
C433       C2181   1.481       .  S
C434       C1560   1.490       .  S
O435        V443   1.928       .  S
O435        C445   1.272       .  A
O436        V443   1.925       .  S
O436        C446   1.271       .  A
O437        V443   1.867       .  S
O437        C447   1.256       .  A
O438        V443   1.882       .  S
O438        C448   1.259       .  A
O439        V444   1.919       .  S
O439        C448   1.271       .  A
O440        V444   1.918       .  S
O440        C447   1.270       .  A
O441        V444   1.890       .  S
O441        C446   1.262       .  A
O442        V444   1.889       .  S
O442        C445   1.262       .  A
V443        V444   2.083       .  T
C445        C480   1.499       .  S
C446       C1173   1.493       .  S
C447        C460   1.479       .  S
C448        C540   1.484       .  S
C449        C450   1.406       .  A
C449        C454   1.398       .  A
C449        F467   1.358       .  S
C450        C455   1.473       .  S
C450       C2179   1.399   1_455  A
C451        C452   1.394       .  A
C451       C2178   1.399       .  A
C451        F456   1.358       .  S
C452       C2181   1.414       .  A
C452        F468   1.358       .  S
C453       C2161   1.478       .  S
C453        C454   1.406   1_655  A
C453       C2180   1.414       .  A
C454        F457   1.357       .  S
C455        C458   1.397       .  A
C455        C462   1.408       .  A
C458        C459   1.387       .  A
C458        F463   1.359       .  S
C459        C460   1.414       .  A
C459        F465   1.358       .  S
C460        C461   1.407       .  A
C461        C462   1.403       .  A
C461        F464   1.358       .  S
C462        F466   1.357   1_455  S
C469        C470   1.409       .  A
C469        C474   1.410   1_455  A
C469        F487   1.358       .  S
C470        C475   1.494       .  S
C470       C2199   1.405       .  A
C471        C472   1.402       .  A
C471       C2198   1.400       .  A
C471        F476   1.358       .  S
C472       C2201   1.417       .  A
C472        F488   1.358       .  S
C473       C2145   1.490       .  S
C473        C474   1.410       .  A
C473       C2200   1.409   1_655  A
C474        F477   1.358       .  S
C475        C478   1.409       .  A
C475        C482   1.403       .  A
C478        C479   1.411       .  A
C478        F483   1.358       .  S
C479        C480   1.412       .  A
C479        F485   1.357       .  S
C480        C481   1.414       .  A
C481        C482   1.398       .  A
C481        F484   1.358       .  S
C482        F486   1.358       .  S
C489        C490   1.405       .  A
C489        C494   1.402       .  A
C489       F2235   1.358   1_455  S
C490        C495   1.495       .  S
C490        C491   1.409       .  A
C491        C492   1.403       .  A
C491        F496   1.358       .  S
C492        C493   1.411       .  A
C492        F508   1.358       .  S
C493        C494   1.414       .  A
C494       F2225   1.358       .  S
C495        C498   1.403       .  A
C495        C502   1.410   1_455  A
F497       C2222   1.358       .  S
C498       C2227   1.398       .  A
C498       F2231   1.358       .  S
C499        C500   1.417       .  A
C499       C2226   1.399       .  A
C499        F505   1.358       .  S
C500       C2229   1.410       .  A
C501        C502   1.408       .  A
C501       C2228   1.410       .  A
C501        F504   1.357       .  S
C502        F506   1.357       .  S
F503       C2226   1.358       .  S
F507       C2217   1.358       .  S
C509        C510   1.407       .  A
C509        C514   1.400       .  A
C509       F2255   1.358   1_455  S
C510        C515   1.477       .  S
C510        C511   1.400       .  A
C511        C512   1.394       .  A
C511        F516   1.358       .  S
C512        C513   1.413       .  A
C512        F528   1.358       .  S
C513        C514   1.407       .  A
C514       F2245   1.358       .  S
C515        C518   1.403       .  A
C515        C522   1.407       .  A
F517       C2242   1.357       .  S
C518        C519   1.392   1_455  A
C518       F2251   1.358   1_455  S
C519        C520   1.408       .  A
C519       F2253   1.358   1_556  S
C520        C521   1.406   1_655  A
C521        C522   1.402       .  A
C521        F524   1.358       .  S
C522        F526   1.358       .  S
F523       C2246   1.358       .  S
F525       C2247   1.358   1_554  S
F527       C2237   1.358       .  S
C529        C530   1.409       .  A
C529        C534   1.403       .  A
C529        F547   1.358       .  S
C530        C535   1.485       .  S
C530        C531   1.403       .  A
C531        C532   1.397       .  A
C531        F536   1.358       .  S
C532        C533   1.410       .  A
C532        F548   1.358       .  S
C533        C534   1.407       .  A
C534        F537   1.358       .  S
C535        C538   1.402       .  A
C535        C542   1.410       .  A
C538        C539   1.396       .  A
C538        F543   1.358       .  S
C539        C540   1.413       .  A
C539        F545   1.358       .  S
C540        C541   1.406       .  A
C541        C542   1.404       .  A
C541        F544   1.358       .  S
C542        F546   1.358       .  S
C549        C550   1.405       .  A
C549        C554   1.397       .  A
C549        F567   1.358       .  S
C550        C555   1.471       .  S
C550        C551   1.400       .  A
C551        C552   1.395       .  A
C551        F556   1.358       .  S
C552        C553   1.410       .  A
C552        F568   1.358       .  S
C553        C554   1.406       .  A
C554        F557   1.358       .  S
C555        C558   1.404       .  A
C555        C562   1.398       .  A
C558        C559   1.402       .  A
C558        F563   1.358       .  S
C559        C560   1.410       .  A
C559        F565   1.357       .  S
C560        C561   1.414       .  A
C561        C562   1.390       .  A
C561        F564   1.358       .  S
C562        F566   1.359       .  S
C569        C570   1.401       .  A
C569        C574   1.398       .  A
C569        F587   1.358       .  S
C570        C575   1.487       .  S
C570        C571   1.408       .  A
C571        C572   1.407       .  A
C571        F576   1.357       .  S
C572        C573   1.409       .  A
C572        F588   1.357       .  S
C573        C574   1.415       .  A
C574        F577   1.358       .  S
C575        C578   1.406       .  A
C575        C582   1.403       .  A
C578        C579   1.404       .  A
C578        F583   1.358       .  S
C579        C580   1.410       .  A
C579        F585   1.358       .  S
C580        C581   1.412       .  A
C581        C582   1.402       .  A
C581        F584   1.358       .  S
C582        F586   1.358       .  S
C589        C590   1.399       .  A
C589        C594   1.398       .  A
C589        F607   1.358       .  S
C590        C595   1.482       .  S
C590        C591   1.406       .  A
C591        C592   1.406       .  A
C591        F596   1.358       .  S
C592        C593   1.412       .  A
C592        F608   1.357       .  S
C593        C594   1.416       .  A
C594        F597   1.358       .  S
C595        C598   1.406       .  A
C595        C602   1.401       .  A
C598        C599   1.405       .  A
C598        F603   1.358       .  S
C599        C600   1.410       .  A
C599        F605   1.357       .  S
C600        C601   1.413       .  A
C601        C602   1.399       .  A
C601        F604   1.358       .  S
C602        F606   1.358       .  S
C609        C610   1.407       .  A
C609        C614   1.400       .  A
C609        F627   1.358       .  S
C610        C615   1.476       .  S
C610        C611   1.400       .  A
C611        C612   1.393       .  A
C611        F616   1.358       .  S
C612        C613   1.413       .  A
C612        F628   1.358       .  S
C613        C614   1.407       .  A
C614        F617   1.358       .  S
C615        C618   1.407       .  A
C615        C622   1.402       .  A
C618        C619   1.400       .  A
C618        F623   1.358       .  S
C619        C620   1.405       .  A
C619        F625   1.358       .  S
C620        C621   1.409       .  A
C621        C622   1.393       .  A
C621        F624   1.359       .  S
C622        F626   1.358       .  S
C629        C630   1.407       .  A
C629        C634   1.404       .  A
C629        F647   1.358       .  S
C630        C635   1.483       .  S
C630        C631   1.403       .  A
C631        C632   1.398       .  A
C631        F636   1.358       .  S
C632        C633   1.409       .  A
C632        F648   1.358       .  S
C633        C634   1.408       .  A
C634        F637   1.358       .  S
C635        C638   1.408       .  A
C635        C642   1.401       .  A
C638        C639   1.403       .  A
C638        F643   1.358       .  S
C639        C640   1.407       .  A
C639        F645   1.358       .  S
C640        C641   1.412       .  A
C641        C642   1.398       .  A
C641        F644   1.358       .  S
C642        F646   1.358       .  S
C649        C654   1.392       .  A
C649       C2378   1.404       .  A
C649        F667   1.358       .  S
C650        C655   1.474       .  S
C650        C651   1.405       .  A
C650       C2377   1.404       .  A
C651        C652   1.398       .  A
C651        F656   1.358       .  S
C652        C653   1.405       .  A
C652        F668   1.358       .  S
C653       C2063   1.465       .  S
C653       C2382   1.404       .  A
C654       C2381   1.404       .  A
C654        F657   1.358       .  S
C655        C658   1.407       .  A
C655        C662   1.400       .  A
C658        C659   1.398       .  A
C658       F2391   1.358       .  S
C659        C660   1.405       .  A
C659       F2393   1.358       .  S
C660        C661   1.412       .  A
C661        C662   1.394       .  A
C661        F664   1.358       .  S
C662        F666   1.358       .  S
F663       C2386   1.358       .  S
F665       C2387   1.358       .  S
C669        C670   1.402       .  A
C669        C674   1.399       .  A
C669       F2415   1.358       .  S
C670        C675   1.484       .  S
C670        C671   1.406       .  A
C671        C672   1.404       .  A
C671        F676   1.358       .  S
C672        C673   1.411       .  A
C672        F688   1.358       .  S
C673        C674   1.412       .  A
C674       F2405   1.358       .  S
C675        C678   1.402       .  A
C675        C682   1.406       .  A
F677       C2402   1.358       .  S
C678       C2407   1.400       .  A
C678        F683   1.358       .  S
C679        C680   1.414       .  A
C679       C2406   1.400       .  A
C679        F685   1.358       .  S
C680       C2409   1.412       .  A
C681        C682   1.403   1_655  A
C681       C2408   1.411   1_655  A
C681        F684   1.358       .  S
C682        F686   1.358   1_455  S
F687       C2397   1.358       .  S
C689        C694   1.408       .  A
C689       C2418   1.409       .  A
C689        F707   1.358       .  S
C690        C695   1.490       .  S
C690        C691   1.402       .  A
C690       C2417   1.408       .  A
C691        C692   1.401       .  A
C691        F696   1.358       .  S
C692        C693   1.415   1_455  A
C692        F708   1.358       .  S
C693       C2019   1.497       .  S
C693       C2422   1.411       .  A
C694       C2421   1.411       .  A
C694        F697   1.358       .  S
C695        C698   1.409       .  A
C695        C702   1.401       .  A
C698        C699   1.408       .  A
C698        F703   1.358       .  S
C699        C700   1.412       .  A
C699        F705   1.357       .  S
C700        C701   1.416       .  A
C701        C702   1.399       .  A
C701        F704   1.358       .  S
C702        F706   1.358       .  S
C709        C714   1.395       .  A
C709       C2438   1.403       .  A
C709        F727   1.358       .  S
C710        C715   1.470       .  S
C710        C711   1.404       .  A
C710       C2437   1.404       .  A
C711        C712   1.395       .  A
C711        F716   1.358       .  S
C712        C713   1.403       .  A
C712        F728   1.358       .  S
C713       C2442   1.405       .  A
C714       C2441   1.405       .  A
C714        F717   1.358       .  S
C715        C718   1.405       .  A
C715        C722   1.400       .  A
C718        C719   1.398       .  A
C718       F2451   1.358   1_455  S
C719        C720   1.407       .  A
C719       F2453   1.358       .  S
C720        C721   1.409       .  A
C721        C722   1.391       .  A
C721        F724   1.358       .  S
C722        F726   1.358       .  S
F723       C2446   1.358       .  S
F725       C2447   1.358       .  S
C729        C730   1.407       .  A
C729        C734   1.404       .  A
C729        F747   1.358       .  S
C730        C735   1.484       .  S
C730        C731   1.400       .  A
C731        C732   1.398       .  A
C731        F736   1.358       .  S
C732        C733   1.416       .  A
C732        F748   1.358       .  S
C733        C734   1.410       .  A
C734        F737   1.357       .  S
C735        C738   1.407       .  A
C735        C742   1.405   1_565  A
C738        C739   1.402   1_565  A
C738        F743   1.358       .  S
C739        C740   1.406       .  A
C739        F745   1.358       .  S
C740        C741   1.405       .  A
C741        C742   1.399       .  A
C741        F744   1.358   1_556  S
C742        F746   1.358   1_546  S
C749        C750   1.401       .  A
C749        C754   1.396       .  A
C749        F767   1.358       .  S
C750        C755   1.483       .  S
C750        C751   1.409       .  A
C751        C752   1.404       .  A
C751        F756   1.358       .  S
C752        C753   1.407       .  A
C752        F768   1.358       .  S
C753        C754   1.411       .  A
C754        F757   1.358       .  S
C755        C758   1.405   1_554  A
C755        C762   1.408       .  A
C758        C759   1.397       .  A
C758        F763   1.358       .  S
C759        C760   1.406       .  A
C759        F765   1.358       .  S
C760        C761   1.406   1_556  A
C761        C762   1.403       .  A
C761        F764   1.358       .  S
C762        F766   1.358       .  S
C769        C770   1.401       .  A
C769        C774   1.395       .  A
C769        F787   1.358       .  S
C770        C775   1.475       .  S
C770        C771   1.405       .  A
C771        C772   1.396       .  A
C771        F776   1.358       .  S
C772        C773   1.407       .  A
C772        F788   1.358       .  S
C773        C774   1.412       .  A
C774        F777   1.358       .  S
C775        C778   1.403       .  A
C775        C782   1.405       .  A
C778        C779   1.394       .  A
C778        F783   1.358       .  S
C779        C780   1.407       .  A
C779        F785   1.358       .  S
C780        C781   1.406       .  A
C781        C782   1.398       .  A
C781        F784   1.358       .  S
C782        F786   1.358       .  S
C789        C790   1.406       .  A
C789        C794   1.402       .  A
C789        F807   1.358       .  S
C790        C795   1.480       .  S
C790        C791   1.400       .  A
C791        C792   1.394       .  A
C791        F796   1.358       .  S
C792        C793   1.413       .  A
C792        F808   1.358       .  S
C793        C794   1.410       .  A
C794        F797   1.357       .  S
C795        C798   1.401       .  A
C795        C802   1.406       .  A
C798        C799   1.397       .  A
C798        F803   1.358       .  S
C799        C800   1.415       .  A
C799        F805   1.358       .  S
C800        C801   1.409       .  A
C801        C802   1.400       .  A
C801        F804   1.357       .  S
C802        F806   1.358       .  S
C809        C810   1.403       .  A
C809        C814   1.401       .  A
C809        F827   1.358       .  S
C810        C815   1.490       .  S
C810        C811   1.408       .  A
C811        C812   1.404       .  A
C811        F816   1.358       .  S
C812        C813   1.410       .  A
C812        F828   1.357       .  S
C813        C814   1.415       .  A
C814        F817   1.358       .  S
C815        C818   1.408       .  A
C815        C822   1.402       .  A
C818        C819   1.406       .  A
C818        F823   1.358       .  S
C819        C820   1.410       .  A
C819        F825   1.357       .  S
C820        C821   1.416       .  A
C821        C822   1.399       .  A
C821        F824   1.358       .  S
C822        F826   1.358       .  S
C829        C830   1.405       .  A
C829        C834   1.394       .  A
C829        F847   1.358       .  S
C830        C835   1.467       .  S
C830        C831   1.400       .  A
C831        C832   1.392       .  A
C831        F836   1.358       .  S
C832        C833   1.409       .  A
C832        F848   1.358       .  S
C833        C834   1.405       .  A
C834        F837   1.358       .  S
C835        C838   1.404       .  A
C835        C842   1.404       .  A
C838        C839   1.394       .  A
C838        F843   1.358       .  S
C839        C840   1.403       .  A
C839        F845   1.358       .  S
C840        C841   1.403       .  A
C841        C842   1.392       .  A
C841        F844   1.358       .  S
C842        F846   1.358       .  S
C849        C850   1.408       .  A
C849        C854   1.404       .  A
C849        F867   1.358       .  S
C850        C855   1.489       .  S
C850        C851   1.404       .  A
C851        C852   1.397       .  A
C851        F856   1.358       .  S
C852        C853   1.413       .  A
C852        F868   1.358       .  S
C853        C854   1.409       .  A
C854        F857   1.357       .  S
C855        C858   1.404       .  A
C855        C862   1.407       .  A
C858        C859   1.399       .  A
C858        F863   1.358       .  S
C859        C860   1.413       .  A
C859        F865   1.358       .  S
C860        C861   1.411       .  A
C861        C862   1.403       .  A
C861        F864   1.357       .  S
C862        F866   1.358       .  S
C869        C870   1.408       .  A
C869        C874   1.404       .  A
C869        F887   1.358       .  S
C870        C875   1.490       .  S
C870        C871   1.405       .  A
C871        C872   1.400       .  A
C871        F876   1.358       .  S
C872        C873   1.410       .  A
C872        F888   1.358       .  S
C873        C874   1.409       .  A
C874        F877   1.358       .  S
C875        C878   1.404       .  A
C875        C882   1.410       .  A
C878        C879   1.398       .  A
C878        F883   1.358       .  S
C879        C880   1.412       .  A
C879        F885   1.358       .  S
C880        C881   1.407       .  A
C881        C882   1.405       .  A
C881        F884   1.357       .  S
C882        F886   1.357       .  S
C889        C890   1.400       .  A
C889        C894   1.396       .  A
C889        F907   1.358       .  S
C890        C895   1.476       .  S
C890        C891   1.405       .  A
C891        C892   1.400       .  A
C891        F896   1.358       .  S
C892        C893   1.408       .  A
C892        F908   1.358       .  S
C893        C894   1.413       .  A
C894        F897   1.358       .  S
C895        C898   1.405       .  A
C895        C902   1.403       .  A
C898        C899   1.401       .  A
C898        F903   1.358       .  S
C899        C900   1.408       .  A
C899        F905   1.358       .  S
C900        C901   1.407       .  A
C901        C902   1.396       .  A
C901        F904   1.358       .  S
C902        F906   1.358       .  S
C909        C910   1.405       .  A
C909        C914   1.400       .  A
C909        F927   1.358       .  S
C910        C915   1.471       .  S
C910        C911   1.401       .  A
C911        C912   1.391       .  A
C911        F916   1.358       .  S
C912        C913   1.408       .  A
C912        F928   1.358       .  S
C913        C914   1.407       .  A
C914        F917   1.358       .  S
C915        C918   1.398       .  A
C915        C922   1.405       .  A
C918        C919   1.394       .  A
C918        F923   1.358       .  S
C919        C920   1.414       .  A
C919        F925   1.358       .  S
C920        C921   1.408       .  A
C921        C922   1.397       .  A
C921        F924   1.358       .  S
C922        F926   1.358       .  S
C929        C930   1.408       .  A
C929        C934   1.406       .  A
C929        F947   1.357       .  S
C930        C935   1.486       .  S
C930        C931   1.402       .  A
C931        C932   1.397       .  A
C931        F936   1.358       .  S
C932        C933   1.414       .  A
C932        F948   1.358       .  S
C933        C934   1.410       .  A
C934        F937   1.357       .  S
C935        C938   1.402       .  A
C935        C942   1.408       .  A
C938        C939   1.398       .  A
C938        F943   1.358       .  S
C939        C940   1.414       .  A
C939        F945   1.358       .  S
C940        C941   1.410       .  A
C941        C942   1.405       .  A
C941        F944   1.358       .  S
C942        F946   1.358       .  S
C949        C950   1.407       .  A
C949        C954   1.401       .  A
C949        F967   1.358       .  S
C950        C955   1.490       .  S
C950        C951   1.404       .  A
C951        C952   1.403       .  A
C951        F956   1.358       .  S
C952        C953   1.415       .  A
C952        F968   1.358       .  S
C953        C954   1.410       .  A
C954        F957   1.357       .  S
C955        C958   1.405       .  A
C955        C962   1.410       .  A
C958        C959   1.397       .  A
C958        F963   1.358       .  S
C959        C960   1.407       .  A
C959        F965   1.358   1_554  S
C960       C2007   1.480       .  S
C960        C961   1.406       .  A
C961        C962   1.407       .  A
C961        F964   1.357       .  S
C962        F966   1.357       .  S
C969        C970   1.405       .  A
C969        C974   1.398       .  A
C969        F987   1.358       .  S
C970        C975   1.492       .  S
C970        C971   1.410       .  A
C971        C972   1.407       .  A
C971        F976   1.358       .  S
C972        C973   1.409       .  A
C972        F988   1.358       .  S
C973        C974   1.409       .  A
C974        F977   1.358       .  S
C975        C978   1.406       .  A
C975        C982   1.409       .  A
C978        C979   1.398       .  A
C978        F983   1.358       .  S
C979        C980   1.409       .  A
C979        F985   1.358       .  S
C980        C981   1.410       .  A
C981        C982   1.407       .  A
C981        F984   1.358       .  S
C982        F986   1.358       .  S
C989        C990   1.408       .  A
C989        C994   1.406       .  A
C989       F1007   1.358       .  S
C990        C995   1.488       .  S
C990        C991   1.403       .  A
C991        C992   1.398       .  A
C991        F996   1.358       .  S
C992        C993   1.412       .  A
C992       F1008   1.358       .  S
C993        C994   1.410       .  A
C994        F997   1.357       .  S
C995        C998   1.402       .  A
C995       C1002   1.410       .  A
C998        C999   1.398       .  A
C998       F1003   1.358       .  S
C999       C1000   1.411       .  A
C999       F1005   1.358       .  S
C1000      C1001   1.408       .  A
C1001      C1002   1.406       .  A
C1001      F1004   1.358       .  S
C1002      F1006   1.358       .  S
C1009      C1010   1.401       .  A
C1009      C1014   1.400       .  A
C1009      F1027   1.358       .  S
C1010      C1015   1.485       .  S
C1010      C1011   1.405       .  A
C1011      C1012   1.405       .  A
C1011      F1016   1.358       .  S
C1012      C1013   1.412       .  A
C1012      F1028   1.358       .  S
C1013      C1014   1.415       .  A
C1014      F1017   1.358       .  S
C1015      C1018   1.401       .  A
C1015      C1022   1.405       .  A
C1018      C1019   1.401       .  A
C1018      F1023   1.358       .  S
C1019      C1020   1.416       .  A
C1019      F1025   1.358       .  S
C1020      C1021   1.411       .  A
C1021      C1022   1.405       .  A
C1021      F1024   1.357       .  S
C1022      F1026   1.357       .  S
C1029      C1030   1.408       .  A
C1029      C1034   1.400       .  A
C1029      F1047   1.358   1_556  S
C1030      C1035   1.480       .  S
C1030      C1031   1.403       .  A
C1031      C1032   1.396       .  A
C1031      F1036   1.358       .  S
C1032      C1033   1.408       .  A
C1032      F1048   1.358       .  S
C1033      C1034   1.405       .  A
C1034      F1037   1.358       .  S
C1035      C1038   1.407   1_556  A
C1035      C1042   1.405       .  A
C1038      C1039   1.398       .  A
C1038      F1043   1.358       .  S
C1039      C1040   1.404       .  A
C1039      F1045   1.358       .  S
C1040      C1041   1.404   1_554  A
C1041      C1042   1.398       .  A
C1041      F1044   1.358       .  S
C1042      F1046   1.358       .  S
C1049      C1050   1.400       .  A
C1049      C1054   1.398       .  A
C1049      F1067   1.358       .  S
C1050      C1055   1.484       .  S
C1050      C1051   1.409       .  A
C1051      C1052   1.407       .  A
C1051      F1056   1.357       .  S
C1052      C1053   1.407       .  A
C1052      F1068   1.357       .  S
C1053      C1054   1.413       .  A
C1054      F1057   1.358       .  S
C1055      C1058   1.408       .  A
C1055      C1062   1.402       .  A
C1058      C1059   1.408       .  A
C1058      F1063   1.357       .  S
C1059      C1060   1.408       .  A
C1059      F1065   1.358       .  S
C1060      C1061   1.408       .  A
C1061      C1062   1.396       .  A
C1061      F2792   1.358       .  S
C1062      F1066   1.358       .  S
F1064      C2789   1.358       .  S
C1069      C1070   1.406       .  A
C1069      C1074   1.401       .  A
C1069      F1087   1.358       .  S
C1070      C1075   1.480       .  S
C1070      C1071   1.403       .  A
C1071      C1072   1.396       .  A
C1071      F1076   1.358       .  S
C1072      C1073   1.411       .  A
C1072      F1088   1.358       .  S
C1073      C1074   1.409       .  A
C1074      F1077   1.358       .  S
C1075      C1078   1.401       .  A
C1075      C1082   1.406       .  A
C1078      C1079   1.396       .  A
C1078      F1083   1.358       .  S
C1079      C1080   1.413       .  A
C1079      F1085   1.358       .  S
C1080      C1081   1.409       .  A
C1081      C1082   1.401       .  A
C1081      F1084   1.357       .  S
C1082      F1086   1.358       .  S
C1089      C1090   1.407       .  A
C1089      C1094   1.403   1_565  A
C1089      F1107   1.358       .  S
C1090      C1095   1.481       .  S
C1090      C1091   1.399   1_565  A
C1091      C1092   1.395       .  A
C1091      F1096   1.358       .  S
C1092      C1093   1.415       .  A
C1092      F1108   1.358       .  S
C1093      C1094   1.410       .  A
C1094      F1097   1.358       .  S
C1095      C1098   1.404       .  A
C1095      C1102   1.408       .  A
C1098      C1099   1.396       .  A
C1098      F1103   1.358       .  S
C1099      C1100   1.407       .  A
C1099      F1105   1.358       .  S
C1100      C1101   1.404       .  A
C1101      C1102   1.401       .  A
C1101      F1104   1.358       .  S
C1102      F1106   1.358       .  S
C1109      C1110   1.409       .  A
C1109      C1114   1.404       .  A
C1109      F1127   1.358       .  S
C1110      C1115   1.481       .  S
C1110      C1111   1.399       .  A
C1111      C1112   1.393       .  A
C1111      F1116   1.359       .  S
C1112      C1113   1.415       .  A
C1112      F1128   1.358       .  S
C1113      C1114   1.407       .  A
C1114      F1117   1.358       .  S
C1115      C1118   1.403       .  A
C1115      C1122   1.409       .  A
C1118      C1119   1.395       .  A
C1118      F1123   1.358       .  S
C1119      C1120   1.407       .  A
C1119      F1125   1.359       .  S
C1120      C1121   1.403       .  A
C1121      C1122   1.401       .  A
C1121      F1124   1.358       .  S
C1122      F1126   1.358       .  S
C1129      C1130   1.406       .  A
C1129      C1134   1.400       .  A
C1129      F1147   1.358       .  S
C1130      C1135   1.493       .  S
C1130      C1131   1.410       .  A
C1131      C1132   1.406       .  A
C1131      F1136   1.358       .  S
C1132      C1133   1.408       .  A
C1132      F1148   1.358       .  S
C1133      C1134   1.409       .  A
C1134      F1137   1.358       .  S
C1135      C1138   1.412       .  A
C1135      C1142   1.404       .  A
C1138      C1139   1.407       .  A
C1138      F1143   1.357       .  S
C1139      C1140   1.405       .  A
C1139      F1145   1.357       .  S
C1140      C1141   1.412       .  A
C1141      C1142   1.399       .  A
C1141      F1144   1.359       .  S
C1142      F1146   1.358       .  S
C1149      C1150   1.406       .  A
C1149      C1154   1.405       .  A
C1149      F1167   1.358       .  S
C1150      C1155   1.485       .  S
C1150      C1151   1.401       .  A
C1151      C1152   1.400       .  A
C1151      F1156   1.358       .  S
C1152      C1153   1.415       .  A
C1152      F1168   1.358       .  S
C1153      C1154   1.411       .  A
C1154      F1157   1.357       .  S
C1155      C1158   1.406       .  A
C1155      C1162   1.403       .  A
C1158      C1159   1.404       .  A
C1158      F1163   1.358       .  S
C1159      C1160   1.410       .  A
C1159      F1165   1.358       .  S
C1160      C1161   1.411       .  A
C1161      C1162   1.400       .  A
C1161      F1164   1.358       .  S
C1162      F1166   1.358       .  S
C1169      C1170   1.402       .  A
C1169      C1174   1.401       .  A
C1169      F1187   1.358       .  S
C1170      C1175   1.489       .  S
C1170      C1171   1.408       .  A
C1171      C1172   1.407       .  A
C1171      F1176   1.357       .  S
C1172      C1173   1.410       .  A
C1172      F1188   1.357       .  S
C1173      C1174   1.413       .  A
C1174      F1177   1.358       .  S
C1175      C1178   1.409       .  A
C1175      C1182   1.400       .  A
C1178      C1179   1.409       .  A
C1178      F1183   1.357       .  S
C1179      C1180   1.411       .  A
C1179      F1185   1.357       .  S
C1180      C1181   1.416       .  A
C1181      C1182   1.398       .  A
C1181      F1184   1.358       .  S
C1182      F1186   1.358       .  S
C1189      C1190   1.403       .  A
C1189      C1194   1.395       .  A
C1189      F1207   1.358       .  S
C1190      C1195   1.480       .  S
C1190      C1191   1.407       .  A
C1191      C1192   1.398       .  A
C1191      F1196   1.358       .  S
C1192      C1193   1.407       .  A
C1192      F1208   1.357       .  S
C1193      C1194   1.412       .  A
C1194      F1197   1.358       .  S
C1195      C1198   1.402       .  A
C1195      C1202   1.410       .  A
C1198      C1199   1.392       .  A
C1198      F1203   1.358       .  S
C1199      C1200   1.408       .  A
C1199      F1205   1.359       .  S
C1200      C1201   1.404       .  A
C1201      C1202   1.402       .  A
C1201      F1204   1.357       .  S
C1202      F1206   1.358       .  S
C1209      C1210   1.408       .  A
C1209      C1214   1.410       .  A
C1209      F1227   1.357       .  S
C1210      C1215   1.491       .  S
C1210      C1211   1.402       .  A
C1211      C1212   1.401       .  A
C1211      F1216   1.358       .  S
C1212      C1213   1.414       .  A
C1212      F1228   1.358       .  S
C1213      C1214   1.411       .  A
C1214      F1217   1.357       .  S
C1215      C1218   1.407       .  A
C1215      C1222   1.402       .  A
C1218      C1219   1.409       .  A
C1218      F1223   1.357       .  S
C1219      C1220   1.411       .  A
C1219      F1225   1.357       .  S
C1220      C1221   1.416       .  A
C1221      C1222   1.402       .  A
C1221      F1224   1.358       .  S
C1222      F1226   1.358       .  S
C1229      C1230   1.401       .  A
C1229      C1234   1.390       .  A
C1229      F1247   1.359       .  S
C1230      C1235   1.469       .  S
C1230      C1231   1.406       .  A
C1231      C1232   1.398       .  A
C1231      F1236   1.358       .  S
C1232      C1233   1.405       .  A
C1232      F1248   1.358       .  S
C1233      C1234   1.409       .  A
C1234      F1237   1.359       .  S
C1235      C1238   1.406       .  A
C1235      C1242   1.398       .  A
C1238      C1239   1.399       .  A
C1238      F1243   1.358       .  S
C1239      C1240   1.408       .  A
C1239      F1245   1.358       .  S
C1240      C1241   1.413       .  A
C1241      C1242   1.388       .  A
C1241      F1244   1.358       .  S
C1242      F1246   1.359       .  S
C1249      C1250   1.409       .  A
C1249      C1254   1.408       .  A
C1249      F1267   1.357       .  S
C1250      C1255   1.485       .  S
C1250      C1251   1.400       .  A
C1251      C1252   1.394       .  A
C1251      F1256   1.358       .  S
C1252      C1253   1.415       .  A
C1252      F1268   1.358       .  S
C1253      C1254   1.410       .  A
C1254      F1257   1.357       .  S
C1255      C1258   1.407       .  A
C1255      C1262   1.401       .  A
C1258      C1259   1.404       .  A
C1258      F1263   1.358       .  S
C1259      C1260   1.411       .  A
C1259      F1265   1.358       .  S
C1260      C1261   1.414       .  A
C1261      C1262   1.398       .  A
C1261      F1264   1.358       .  S
C1262      F1266   1.358       .  S
C1269      C1270   1.411       .  A
C1269      C1274   1.409       .  A
C1269      F1287   1.357       .  S
C1270      C1275   1.499       .  S
C1270      C1271   1.404       .  A
C1271      C1272   1.402       .  A
C1271      F1276   1.358       .  S
C1272      C1273   1.415       .  A
C1272      F1288   1.358       .  S
C1273      C1274   1.410       .  A
C1274      F1277   1.357       .  S
C1275      C1278   1.406       .  A
C1275      C1282   1.411       .  A
C1278      C1279   1.403       .  A
C1278      F1283   1.358       .  S
C1279      C1280   1.412       .  A
C1279      F1285   1.358       .  S
C1280      C1281   1.409       .  A
C1281      C1282   1.408       .  A
C1281      F1284   1.358       .  S
C1282      F1286   1.358   1_556  S
C1289      C1290   1.403       .  A
C1289      C1294   1.395       .  A
C1289      F1307   1.358   1_455  S
C1290      C1295   1.490       .  S
C1290      C3019   1.410       .  A
C1291      C1292   1.406       .  A
C1291      C3018   1.410       .  A
C1291      F1296   1.357       .  S
C1292      C3021   1.409       .  A
C1292      F1308   1.357       .  S
C1293      C2104   1.489       .  S
C1293      C1294   1.413       .  A
C1293      C3020   1.408       .  A
C1294      F1297   1.358   1_455  S
C1295      C1298   1.406       .  A
C1295      C1302   1.408       .  A
C1298      C1299   1.401       .  A
C1298      F1303   1.358       .  S
C1299      C1300   1.412       .  A
C1299      F1305   1.358       .  S
C1300      C1301   1.409       .  A
C1301      C1302   1.401       .  A
C1301      F1304   1.358       .  S
C1302      F1306   1.358       .  S
C1309      C1314   1.404       .  A
C1309      C3038   1.408   1_455  A
C1309      F1327   1.358       .  S
C1310      C1315   1.485       .  S
C1310      C1311   1.401       .  A
C1310      C3037   1.409       .  A
C1311      C3040   1.395       .  A
C1311      F1316   1.358       .  S
C1312      C1313   1.413       .  A
C1312      C3039   1.396   1_455  A
C1312      F1328   1.358   1_455  S
C1313      C1314   1.409       .  A
C1314      F1317   1.357       .  S
C1315      C1318   1.408       .  A
C1315      C1322   1.404       .  A
C1318      C1319   1.401       .  A
C1318      F1323   1.358       .  S
C1319      C1320   1.405       .  A
C1319      F1325   1.358       .  S
C1320      C1321   1.409       .  A
C1321      C1322   1.400       .  A
C1321      F1324   1.358   1_556  S
C1322      F1326   1.358   1_556  S
C1329      C1330   1.409       .  A
C1329      C1334   1.401       .  A
C1329      F1347   1.358       .  S
C1330      C1335   1.479       .  S
C1330      C1331   1.404       .  A
C1331      C1332   1.395       .  A
C1331      F1336   1.358   1_556  S
C1332      C1333   1.403       .  A
C1332      F1348   1.358   1_556  S
C1333      C1334   1.402       .  A
C1334      F1337   1.358       .  S
C1335      C1338   1.400       .  A
C1335      C1342   1.409       .  A
C1338      C1339   1.394       .  A
C1338      F1343   1.358       .  S
C1339      C1340   1.413       .  A
C1339      F1345   1.358       .  S
C1340      C1341   1.406       .  A
C1341      C1342   1.402       .  A
C1341      F1344   1.357       .  S
C1342      F1346   1.358       .  S
C1349      C1350   1.401       .  A
C1349      C1354   1.395       .  A
C1349      F1367   1.358       .  S
C1350      C1355   1.485       .  S
C1350      C1351   1.409       .  A
C1351      C3080   1.407       .  A
C1351      F3084   1.358       .  S
C1352      C3079   1.406       .  A
C1352      C3081   1.407       .  A
C1352      F1368   1.357       .  S
C1353      C2090   1.486       .  S
C1353      C1354   1.410       .  A
C1353      C3080   1.409       .  A
C1354      F1357   1.358       .  S
C1355      C1358   1.400       .  A
C1355      C1362   1.409       .  A
F1356      C3079   1.358       .  S
C1358      C1359   1.399       .  A
C1358      F1363   1.358       .  S
C1359      C1360   1.415       .  A
C1359      F1365   1.358       .  S
C1360      C1361   1.407       .  A
C1361      C1362   1.404       .  A
C1361      F1364   1.357       .  S
C1362      F1366   1.358   1_455  S
C1369      C1370   1.411       .  A
C1369      C1374   1.408       .  A
C1369      F1387   1.358       .  S
C1370      C3103   1.496       .  S
C1370      C1371   1.403       .  A
C1371      C1372   1.398       .  A
C1371      F3104   1.358       .  S
C1372      C1373   1.415       .  A
C1372      F1388   1.358       .  S
C1373      C1374   1.409       .  A
C1374      F1377   1.357       .  S
C1375      C3098   1.493       .  S
C1375      C1378   1.407       .  A
C1375      C1382   1.411   1_655  A
F1376      C3099   1.358   1_455  S
C1378      C1379   1.400   1_655  A
C1378      F3111   1.358       .  S
C1379      C1380   1.408       .  A
C1379      F1385   1.358       .  S
C1380      C1381   1.405       .  A
C1381      C1382   1.403       .  A
C1381      F1384   1.358       .  S
C1382      F1386   1.358       .  S
F1383      C3106   1.358       .  S
C1389      C1390   1.411       .  A
C1389      C1394   1.408       .  A
C1389      F1407   1.358       .  S
C1390      C1395   1.496       .  S
C1390      C1391   1.403       .  A
C1391      C1392   1.403       .  A
C1391      F1396   1.358       .  S
C1392      C1393   1.416       .  A
C1392      F1408   1.358       .  S
C1393      C1394   1.408       .  A
C1394      F1397   1.357       .  S
C1395      C1398   1.404       .  A
C1395      C1402   1.411       .  A
C1398      C1399   1.399       .  A
C1398      F1403   1.358       .  S
C1399      C1400   1.412       .  A
C1399      F1405   1.358       .  S
C1400      C1401   1.411       .  A
C1401      C1402   1.410       .  A
C1401      F1404   1.358       .  S
C1402      F1406   1.358       .  S
C1409      C1410   1.404       .  A
C1409      C1414   1.399       .  A
C1409      F1427   1.358       .  S
C1410      C1415   1.486       .  S
C1410      C1411   1.407       .  A
C1411      C1412   1.405       .  A
C1411      F1416   1.358       .  S
C1412      C1413   1.409       .  A
C1412      F1428   1.357       .  S
C1413      C1414   1.410       .  A
C1414      F1417   1.358       .  S
C1415      C1418   1.402       .  A
C1415      C1422   1.409       .  A
C1418      C1419   1.397       .  A
C1418      F1423   1.358       .  S
C1419      C1420   1.413       .  A
C1419      F1425   1.358       .  S
C1420      C1421   1.408       .  A
C1421      C1422   1.406       .  A
C1421      F1424   1.357       .  S
C1422      F1426   1.358       .  S
C1429      C1430   1.401       .  A
C1429      C1434   1.397       .  A
C1429      F1447   1.358       .  S
C1430      C1435   1.482       .  S
C1430      C1431   1.407       .  A
C1431      C1432   1.402       .  A
C1431      F1436   1.358       .  S
C1432      C1433   1.409       .  A
C1432      F1448   1.357       .  S
C1433      C1434   1.414       .  A
C1434      F1437   1.358       .  S
C1435      C1438   1.408       .  A
C1435      C1442   1.403       .  A
C1438      C1439   1.404       .  A
C1438      F1443   1.358       .  S
C1439      C1440   1.407       .  A
C1439      F1445   1.358       .  S
C1440      C1441   1.406       .  A
C1441      C1442   1.396       .  A
C1441      F1444   1.358       .  S
C1442      F1446   1.358       .  S
C1449      C1450   1.406       .  A
C1449      C1454   1.404       .  A
C1449      F1467   1.358       .  S
C1450      C1455   1.494       .  S
C1450      C1451   1.405       .  A
C1451      C1452   1.405       .  A
C1451      F1456   1.358       .  S
C1452      C1453   1.415       .  A
C1452      F1468   1.358       .  S
C1453      C1454   1.412       .  A
C1454      F1457   1.357       .  S
C1455      C1458   1.404       .  A
C1455      C1462   1.408       .  A
C1458      C1459   1.402       .  A
C1458      F1463   1.358       .  S
C1459      C1460   1.414       .  A
C1459      F1465   1.358       .  S
C1460      C1461   1.412       .  A
C1461      C1462   1.407       .  A
C1461      F1464   1.357       .  S
C1462      F1466   1.358       .  S
C1469      C1470   1.407       .  A
C1469      C1474   1.403       .  A
C1469      F1487   1.358       .  S
C1470      C1475   1.476       .  S
C1470      C1471   1.399       .  A
C1471      C1472   1.392       .  A
C1471      F1476   1.358       .  S
C1472      C1473   1.413       .  A
C1472      F1488   1.358       .  S
C1473      C1474   1.408       .  A
C1474      F1477   1.357       .  S
C1475      C1478   1.407       .  A
C1475      C1482   1.403       .  A
C1478      C1479   1.400       .  A
C1478      F1483   1.358       .  S
C1479      C1480   1.404       .  A
C1479      F1485   1.358       .  S
C1480      C1481   1.406       .  A
C1481      C1482   1.395       .  A
C1481      F1484   1.358       .  S
C1482      F1486   1.358       .  S
C1489      C1490   1.403       .  A
C1489      C1494   1.395       .  A
C1489      F1507   1.358       .  S
C1490      C1495   1.483       .  S
C1490      C1491   1.408       .  A
C1491      C1492   1.402       .  A
C1491      F3224   1.358       .  S
C1492      C1493   1.408       .  A
C1492      F1508   1.358       .  S
C1493      C1494   1.409       .  A
C1494      F1497   1.358       .  S
C1495      C1498   1.402   1_455  A
C1495      C1502   1.409       .  A
F1496      C3219   1.358       .  S
C1498      C1499   1.395       .  A
C1498      F1503   1.358       .  S
C1499      C3228   1.412   1_655  A
C1499      F1505   1.358       .  S
C1500      C1501   1.410       .  A
C1500      C3227   1.415       .  A
C1501      C3230   1.403       .  A
C1501      F1504   1.358       .  S
C1502      C3229   1.403       .  A
C1502      F3234   1.358       .  S
F1506      C3230   1.357       .  S
C1509      C1510   1.405       .  A
C1509      C3242   1.400       .  A
C1509      F1527   1.358       .  S
C1510      C1515   1.490       .  S
C1510      C3239   1.409       .  A
C1511      C1512   1.400       .  A
C1511      C3238   1.409   1_455  A
C1511      F1516   1.358       .  S
C1512      C1513   1.408       .  A
C1512      F1528   1.358       .  S
C1513      C1514   1.413   1_455  A
C1514      C3237   1.399       .  A
C1514      F1517   1.358       .  S
C1515      C1518   1.408       .  A
C1515      C1522   1.410       .  A
C1518      C1519   1.397       .  A
C1518      F1523   1.358       .  S
C1519      C1520   1.405       .  A
C1519      F1525   1.358       .  S
C1520      C1521   1.406       .  A
C1521      C1522   1.403       .  A
C1521      F1524   1.358       .  S
C1522      F1526   1.357       .  S
C1529      C1530   1.398       .  A
C1529      C1534   1.393       .  A
C1529      F1547   1.358       .  S
C1530      C1535   1.475       .  S
C1530      C1531   1.405       .  A
C1531      C1532   1.405       .  A
C1531      F1536   1.357       .  S
C1532      C1533   1.408       .  A
C1532      F1548   1.357       .  S
C1533      C1534   1.414       .  A
C1534      F1537   1.358       .  S
C1535      C1538   1.399       .  A
C1535      C1542   1.405       .  A
C1538      C1539   1.395       .  A
C1538      F1543   1.358       .  S
C1539      C1540   1.414       .  A
C1539      F1545   1.358       .  S
C1540      C1541   1.409       .  A
C1541      C1542   1.404       .  A
C1541      F1544   1.357       .  S
C1542      F1546   1.357       .  S
C1549      C1550   1.407       .  A
C1549      C1554   1.401       .  A
C1549      F1567   1.358       .  S
C1550      C1555   1.485   1_565  S
C1550      C1551   1.405       .  A
C1551      C1552   1.400       .  A
C1551      F1556   1.358       .  S
C1552      C1553   1.407       .  A
C1552      F1568   1.358       .  S
C1553      C1554   1.406       .  A
C1554      F1557   1.358       .  S
C1555      C1558   1.401       .  A
C1555      C1562   1.408       .  A
C1558      C1559   1.397       .  A
C1558      F1563   1.358       .  S
C1559      C1560   1.415       .  A
C1559      F1565   1.358       .  S
C1560      C1561   1.408       .  A
C1561      C1562   1.404       .  A
C1561      F1564   1.357       .  S
C1562      F1566   1.357   1_545  S
C1569      C1570   1.401       .  A
C1569      C1574   1.395       .  A
C1569      F1587   1.358       .  S
C1570      C1575   1.478       .  S
C1570      C1571   1.406       .  A
C1571      C1572   1.400       .  A
C1571      F1576   1.358       .  S
C1572      C1573   1.409       .  A
C1572      F1588   1.357       .  S
C1573      C1574   1.414       .  A
C1574      F1577   1.358       .  S
C1575      C1578   1.403       .  A
C1575      C1582   1.405       .  A
C1578      C1579   1.394       .  A
C1578      F1583   1.358       .  S
C1579      C1580   1.408       .  A
C1579      F1585   1.358       .  S
C1580      C1581   1.409       .  A
C1581      C1582   1.400       .  A
C1581      F1584   1.358       .  S
C1582      F1586   1.358       .  S
C1589      C1590   1.401       .  A
C1589      C1594   1.395       .  A
C1589      F1607   1.358       .  S
C1590      C1595   1.479       .  S
C1590      C1591   1.405       .  A
C1591      C1592   1.401       .  A
C1591      F1596   1.358       .  S
C1592      C1593   1.410       .  A
C1592      F1608   1.358       .  S
C1593      C1594   1.413       .  A
C1594      F1597   1.358       .  S
C1595      C1598   1.400       .  A
C1595      C1602   1.406       .  A
C1598      C1599   1.395       .  A
C1598      F1603   1.358       .  S
C1599      C1600   1.414       .  A
C1599      F1605   1.358       .  S
C1600      C1601   1.410       .  A
C1601      C1602   1.402       .  A
C1601      F1604   1.357       .  S
C1602      F1606   1.358       .  S
C1609      C1610   1.407       .  A
C1609      C1614   1.404       .  A
C1609      F1627   1.358       .  S
C1610      C1615   1.477       .  S
C1610      C1611   1.402       .  A
C1611      C1612   1.392       .  A
C1611      F1616   1.358       .  S
C1612      C1613   1.406       .  A
C1612      F1628   1.358       .  S
C1613      C1614   1.407       .  A
C1614      F1617   1.358       .  S
C1615      C1618   1.401       .  A
C1615      C1622   1.405       .  A
C1618      C1619   1.399       .  A
C1618      F1623   1.358       .  S
C1619      C1620   1.413       .  A
C1619      F1625   1.358       .  S
C1620      C1621   1.408       .  A
C1621      C1622   1.398       .  A
C1621      F1624   1.358       .  S
C1622      F1626   1.358       .  S
C1629      C1630   1.405       .  A
C1629      C1634   1.401       .  A
C1629      F1647   1.358       .  S
C1630      C1635   1.481       .  S
C1630      C1631   1.403       .  A
C1631      C1632   1.399       .  A
C1631      F1636   1.358       .  S
C1632      C1633   1.410       .  A
C1632      F1648   1.358       .  S
C1633      C1634   1.409       .  A
C1634      F1637   1.358       .  S
C1635      C1638   1.401       .  A
C1635      C1642   1.406       .  A
C1638      C1639   1.398       .  A
C1638      F1643   1.358       .  S
C1639      C1640   1.413       .  A
C1639      F1645   1.358       .  S
C1640      C1641   1.408       .  A
C1641      C1642   1.402       .  A
C1641      F1644   1.357       .  S
C1642      F1646   1.358       .  S
C1649      C1650   1.409       .  A
C1649      C1654   1.404       .  A
C1649      F1667   1.358       .  S
C1650      C1655   1.488       .  S
C1650      C1651   1.406       .  A
C1651      C1652   1.397       .  A
C1651      F1656   1.358       .  S
C1652      C1653   1.407       .  A
C1652      F1668   1.358       .  S
C1653      C1654   1.408       .  A
C1654      F1657   1.358       .  S
C1655      C1658   1.410       .  A
C1655      C1662   1.404       .  A
C1658      C1659   1.403       .  A
C1658      F1663   1.358       .  S
C1659      C1660   1.405       .  A
C1659      F1665   1.357       .  S
C1660      C1964   1.483       .  S
C1660      C3389   1.410   1_455  A
C1661      C3388   1.409       .  A
C1661      C3390   1.401       .  A
C1661      F1664   1.358       .  S
C1662      C3389   1.399   1_455  A
C1662      F1666   1.358   1_455  S
C1669      C1674   1.400       .  A
C1669      C3398   1.407   1_455  A
C1669      F1687   1.358       .  S
C1670      C1675   1.484       .  S
C1670      C1671   1.403       .  A
C1670      C3397   1.408       .  A
C1671      C3400   1.395       .  A
C1671      F1676   1.358       .  S
C1672      C1673   1.412   1_655  A
C1672      C3399   1.395       .  A
C1672      F1688   1.358       .  S
C1673      C1674   1.410       .  A
C1674      F1677   1.358       .  S
C1675      C1678   1.408       .  A
C1675      C1682   1.406   1_565  A
C1678      C1679   1.399   1_565  A
C1678      F1683   1.358       .  S
C1679      C1680   1.404       .  A
C1679      F1685   1.358       .  S
C1680      C1681   1.406       .  A
C1681      C1682   1.397       .  A
C1681      F1684   1.358       .  S
C1682      F1686   1.358   1_545  S
C1689      C1690   1.409       .  A
C1689      C1694   1.405       .  A
C1689      F1707   1.358       .  S
C1690      C1695   1.488       .  S
C1690      C1691   1.402       .  A
C1691      C1692   1.397       .  A
C1691      F1696   1.358       .  S
C1692      C1693   1.415       .  A
C1692      F1708   1.358       .  S
C1693      C1694   1.408       .  A
C1694      F1697   1.357       .  S
C1695      C1698   1.403       .  A
C1695      C1702   1.407       .  A
C1698      C1699   1.399       .  A
C1698      F1703   1.358       .  S
C1699      C1700   1.413       .  A
C1699      F1705   1.358       .  S
C1700      C1701   1.411       .  A
C1701      C1702   1.403       .  A
C1701      F1704   1.358       .  S
C1702      F1706   1.358       .  S
C1709      C1710   1.404       .  A
C1709      C1714   1.394       .  A
C1709      F1727   1.358       .  S
C1710      C1715   1.473       .  S
C1710      C1711   1.405       .  A
C1711      C1712   1.397       .  A
C1711      F1716   1.358       .  S
C1712      C1713   1.405       .  A
C1712      F1728   1.358       .  S
C1713      C1714   1.406       .  A
C1714      F1717   1.358       .  S
C1715      C1718   1.399       .  A
C1715      C1722   1.406       .  A
C1718      C1719   1.391       .  A
C1718      F1723   1.358       .  S
C1719      C1720   1.413       .  A
C1719      F1725   1.358       .  S
C1720      C1721   1.407       .  A
C1721      C1722   1.399       .  A
C1721      F1724   1.358       .  S
C1722      F1726   1.358       .  S
O1729      V1737   1.915       .  S
O1729      C1739   1.269       .  A
O1730      V1737   1.918       .  S
O1730      C1740   1.269       .  A
O1731      V1737   1.886       .  S
O1731      C1741   1.262       .  A
O1732      V1737   1.880       .  S
O1732      C1742   1.259       .  A
O1733      V1738   1.906       .  S
O1733      C1742   1.266       .  A
O1734      V1738   1.908       .  S
O1734      C1741   1.267       .  A
O1735      V1738   1.891       .  S
O1735      C1740   1.262       .  A
O1736      V1738   1.896       .  S
O1736      C1739   1.264       .  A
V1737      V1738   2.083       .  T
C1739      C3428   1.495       .  S
C1740      C3381   1.484       .  S
C1741      C3401   1.485       .  S
C1742      C3441   1.468       .  S
O1743      V1751   1.913       .  S
O1743      C1753   1.268       .  A
O1744      V1751   1.912       .  S
O1744      C1754   1.268       .  A
O1745      V1751   1.876       .  S
O1745      C1755   1.259       .  A
O1746      V1751   1.870       .  S
O1746      C1756   1.258       .  A
O1747      V1752   1.917       .  S
O1747      C1756   1.269       .  A
O1748      V1752   1.919       .  S
O1748      C1755   1.269       .  A
O1749      V1752   1.887       .  S
O1749      C1754   1.262       .  A
O1750      V1752   1.892       .  S
O1750      C1753   1.263       .  A
V1751      V1752   2.083       .  T
C1753      C3361   1.490       .  S
C1754      C3321   1.487       .  S
C1755      C3341   1.478       .  S
C1756      C3448   1.477       .  S
O1757      V1765   1.920       .  S
O1757      C1767   1.270       .  A
O1758      V1765   1.921       .  S
O1758      C1768   1.271       .  A
O1759      V1765   1.885       .  S
O1759      C1769   1.261       .  A
O1760      V1765   1.878       .  S
O1760      C1770   1.259       .  A
O1761      V1766   1.914       .  S
O1761      C1770   1.270       .  A
O1762      V1766   1.914       .  S
O1762      C1769   1.269       .  A
O1763      V1766   1.884       .  S
O1763      C1768   1.260       .  A
O1764      V1766   1.889       .  S
O1764      C1767   1.261       .  A
V1765      V1766   2.080       .  T
C1767      C3421   1.479       .  S
C1768      C3261   1.491       .  S
C1769      C3281   1.476       .  S
C1770      C3301   1.483       .  S
O1771      V1779   1.912       .  S
O1771      C1781   1.268       .  A
O1772      V1779   1.911       .  S
O1772      C1782   1.268       .  A
O1773      V1779   1.894       .  S
O1773      C1783   1.263       .  A
O1774      V1779   1.886       .  S
O1774      C1784   1.261       .  A
O1775      V1780   1.906       .  S
O1775      C1784   1.266       .  A
O1776      V1780   1.908       .  S
O1776      C1783   1.268       .  A
O1777      V1780   1.887       .  S
O1777      C1782   1.262       .  A
O1778      V1780   1.893       .  S
O1778      C1781   1.263       .  A
V1779      V1780   2.084       .  T
C1781      C3368   1.492       .  S
C1782      C3221   1.484       .  S
C1783      C3241   1.490       .  S
C1784      C3308   1.473       .  S
O1785      V1793   1.913       .  S
O1785      C1795   1.268       .  A
O1786      V1793   1.915       .  S
O1786      C1796   1.269       .  A
O1787      V1793   1.884       .  S
O1787      C1797   1.260       .  A
O1788      V1793   1.878       .  S
O1788      C1798   1.258       .  A
O1789      V1794   1.917       .  S
O1789      C1798   1.269       .  A
O1790      V1794   1.918       .  S
O1790      C1797   1.269       .  A
O1791      V1794   1.893       .  S
O1791      C1796   1.262       .  A
O1792      V1794   1.905       .  S
O1792      C1795   1.266       .  A
V1793      V1794   2.085       .  T
C1795      C3181   1.499       .  S
C1796      C3141   1.487       .  S
C1797      C3168   1.478       .  S
C1798      C3208   1.472       .  S
O1799      V1807   1.927       .  S
O1799      C1809   1.272       .  A
O1800      V1807   1.927       .  S
O1800      C1810   1.272       .  A
O1801      V1807   1.890       .  S
O1801      C1811   1.261       .  A
O1802      V1807   1.879       .  S
O1802      C1812   1.259       .  A
O1803      V1808   1.921       .  S
O1803      C1812   1.270       .  A
O1804      V1808   1.922       .  S
O1804      C1811   1.271       .  A
O1805      V1808   1.878       .  S
O1805      C1810   1.259       .  A
O1806      V1808   1.886       .  S
O1806      C1809   1.261       .  A
V1807      V1808   2.082       .  T
C1809      C3128   1.499       .  S
C1810      C3088   1.488       .  S
C1811      C3108   1.485       .  S
C1812      C3201   1.487       .  S
O1813      V1821   1.920       .  S
O1813      C1823   1.270       .  A
O1814      V1821   1.913       .  S
O1814      C1824   1.269   1_556  A
O1815      V1821   1.883       .  S
O1815      C1825   1.261       .  A
O1816      V1821   1.879       .  S
O1816      C1826   1.258       .  A
O1817      V1822   1.915       .  S
O1817      C1826   1.268       .  A
O1818      V1822   1.920       .  S
O1818      C1825   1.270       .  A
O1819      V1822   1.893   1_554  S
O1819      C1824   1.262       .  A
O1820      V1822   1.896       .  S
O1820      C1823   1.264       .  A
V1821      V1822   2.084       .  T
C1823      C3188   1.498       .  S
C1824      C3028   1.488       .  S
C1825      C3041   1.489       .  S
C1826      C3061   1.464       .  S
O1827      V1835   1.925       .  S
O1827      C1837   1.272       .  A
O1828      V1835   1.928       .  S
O1828      C1838   1.272   1_556  A
O1829      V1835   1.890       .  S
O1829      C1839   1.261       .  A
O1830      V1835   1.875       .  S
O1830      C1840   1.258       .  A
O1831      V1836   1.920       .  S
O1831      C1840   1.270       .  A
O1832      V1836   1.922       .  S
O1832      C1839   1.271       .  A
O1833      V1836   1.879       .  S
O1833      C1838   1.259   1_556  A
O1834      V1836   1.891       .  S
O1834      C1837   1.261       .  A
V1835      V1836   2.081       .  T
C1837      C3121   1.493       .  S
C1838      C2981   1.493       .  S
C1839      C3008   1.488       .  S
C1840      C3068   1.480       .  S
O1841      V1849   1.930       .  S
O1841      C1851   1.273       .  A
O1842      V1849   1.932       .  S
O1842      C1852   1.273       .  A
O1843      V1849   1.871       .  S
O1843      C1853   1.257       .  A
O1844      V1849   1.882       .  S
O1844      C1854   1.259       .  A
O1845      V1850   1.910       .  S
O1845      C1854   1.269       .  A
O1846      V1850   1.911       .  S
O1846      C1853   1.268       .  A
O1847      V1850   1.887       .  S
O1847      C1852   1.261       .  A
O1848      V1850   1.895       .  S
O1848      C1851   1.263       .  A
V1849      V1850   2.084       .  T
C1851      C2941   1.501       .  S
C1852      C2908   1.496       .  S
C1853      C2961   1.470       .  S
C1854      C2921   1.481       .  S
O1855      V1863   1.918       .  S
O1855      C1865   1.269       .  A
O1856      V1863   1.918       .  S
O1856      C1866   1.269       .  A
O1857      V1863   1.875       .  S
O1857      C1867   1.259       .  A
O1858      V1863   1.885       .  S
O1858      C1868   1.260       .  A
O1859      V1864   1.908       .  S
O1859      C1868   1.266       .  A
O1860      V1864   1.905       .  S
O1860      C1867   1.267       .  A
O1861      V1864   1.891       .  S
O1861      C1866   1.262       .  A
O1862      V1864   1.897       .  S
O1862      C1865   1.264       .  A
V1863      V1864   2.086       .  T
C1865      C2881   1.496       .  S
C1866      C2861   1.485       .  S
C1867      C2968   1.475       .  S
C1868      C3408   1.470       .  S
O1869      V1877   1.916       .  S
O1869      C1879   1.270       .  A
O1870      V1877   1.920       .  S
O1870      C1880   1.270       .  A
O1871      V1877   1.872       .  S
O1871      C1881   1.257       .  A
O1872      V1877   1.877       .  S
O1872      C1882   1.258       .  A
O1873      V1878   1.917       .  S
O1873      C1882   1.270       .  A
O1874      V1878   1.914       .  S
O1874      C1881   1.268       .  A
O1875      V1878   1.885       .  S
O1875      C1880   1.261       .  A
O1876      V1878   1.893       .  S
O1876      C1879   1.262       .  A
V1877      V1878   2.084       .  T
C1879      C2888   1.493       .  S
C1880      C2808   1.491       .  S
C1881      C2848   1.470       .  S
C1882      C2821   1.485       .  S
O1883      V1891   1.929       .  S
O1883      C1893   1.273       .  A
O1884      V1891   1.928       .  S
O1884      C1894   1.272       .  A
O1885      V1891   1.870       .  S
O1885      C1895   1.257       .  A
O1886      V1891   1.879       .  S
O1886      C1896   1.260       .  A
O1887      V1892   1.927       .  S
O1887      C1896   1.272       .  A
O1888      V1892   1.922       .  S
O1888      C1895   1.271       .  A
O1889      V1892   1.886       .  S
O1889      C1894   1.260       .  A
O1890      V1892   1.891       .  S
O1890      C1893   1.261       .  A
V1891      V1892   2.081       .  T
C1893      C2948   1.502       .  S
C1894      C2781   1.488       .  S
C1895      C2841   1.485       .  S
C1896      C3101   1.493       .  S
O1897      V1905   1.921   1_554  S
O1897      C1907   1.271       .  A
O1898      V1905   1.921       .  S
O1898      C1908   1.270       .  A
O1899      V1905   1.881       .  S
O1899      C1909   1.260       .  A
O1900      V1905   1.888       .  S
O1900      C1910   1.261       .  A
O1901      V1906   1.914       .  S
O1901      C1910   1.269       .  A
O1902      V1906   1.911       .  S
O1902      C1909   1.267       .  A
O1903      V1906   1.889       .  S
O1903      C1908   1.262       .  A
O1904      V1906   1.893   1_554  S
O1904      C1907   1.263       .  A
V1905      V1906   2.081       .  T
C1907      C2748   1.498       .  S
C1908      C2728   1.490       .  S
C1909      C2761   1.471       .  S
C1910      C3048   1.479       .  S
O1911      V1919   1.919       .  S
O1911      C1921   1.270       .  A
O1912      V1919   1.921       .  S
O1912      C1922   1.270   1_554  A
O1913      V1919   1.885       .  S
O1913      C1923   1.260       .  A
O1914      V1919   1.895       .  S
O1914      C1924   1.263       .  A
O1915      V1920   1.911       .  S
O1915      C1924   1.268       .  A
O1916      V1920   1.907       .  S
O1916      C1923   1.266       .  A
O1917      V1920   1.889   1_556  S
O1917      C1922   1.262       .  A
O1918      V1920   1.896       .  S
O1918      C1921   1.264       .  A
V1919      V1920   2.082       .  T
C1921      C2701   1.497       .  S
C1922      C2661   1.490       .  S
C1923      C2768   1.466       .  S
C1924      C2681   1.491       .  S
O1925      V1933   1.918       .  S
O1925      C1935   1.270       .  A
O1926      V1933   1.918       .  S
O1926      C1936   1.270       .  A
O1927      V1933   1.877       .  S
O1927      C1937   1.260       .  A
O1928      V1933   1.887       .  S
O1928      C1938   1.261       .  A
O1929      V1934   1.908       .  S
O1929      C1938   1.268       .  A
O1930      V1934   1.908       .  S
O1930      C1937   1.266       .  A
O1931      V1934   1.895       .  S
O1931      C1936   1.263       .  A
O1932      V1934   1.897       .  S
O1932      C1935   1.264       .  A
V1933      V1934   2.083       .  T
C1935      C2741   1.498       .  S
C1936      C2601   1.492       .  S
C1937      C2641   1.472       .  S
C1938      C2621   1.483       .  S
O1939      V1947   1.918       .  S
O1939      C1949   1.269       .  A
O1940      V1947   1.917       .  S
O1940      C1950   1.269       .  A
O1941      V1947   1.878       .  S
O1941      C1951   1.259       .  A
O1942      V1947   1.885       .  S
O1942      C1952   1.261       .  A
O1943      V1948   1.914       .  S
O1943      C1952   1.268       .  A
O1944      V1948   1.909       .  S
O1944      C1951   1.268       .  A
O1945      V1948   1.886       .  S
O1945      C1950   1.261       .  A
O1946      V1948   1.894       .  S
O1946      C1949   1.264       .  A
V1947      V1948   2.081       .  T
C1949      C2708   1.494       .  S
C1950      C2581   1.485       .  S
C1951      C2648   1.479       .  S
C1952      C3248   1.477       .  S
O1953      V1961   1.918   1_655  S
O1953      C1963   1.271       .  A
O1955      C1965   1.259       .  A
O1956      V1961   1.875   1_655  S
O1956      C1966   1.259       .  A
O1957      V1962   1.909       .  S
O1957      C1966   1.268       .  A
O1958      V1962   1.916       .  S
O1959      V1962   1.887       .  S
O1959      C1964   1.261   1_655  A
O1960      V1962   1.893       .  S
O1960      C1963   1.263       .  A
V1961      V1962   2.081   1_455  T
C1963      C2541   1.496       .  S
C1965      C2828   1.469       .  S
C1966      C2561   1.474       .  S
O1967      V1975   1.909       .  S
O1967      C1977   1.267       .  A
O1968      V1975   1.912       .  S
O1968      C1978   1.268       .  A
O1969      V1975   1.887       .  S
O1969      C1979   1.261       .  A
O1970      V1975   1.880       .  S
O1970      C1980   1.260       .  A
O1971      V1976   1.904       .  S
O1971      C1980   1.265       .  A
O1972      V1976   1.904       .  S
O1972      C1979   1.267       .  A
O1973      V1976   1.889       .  S
O1973      C1978   1.262       .  A
O1974      V1976   1.891       .  S
O1974      C1977   1.263       .  A
V1975      V1976   2.085       .  T
C1977      C2521   1.487       .  S
C1978      C3328   1.489       .  S
C1979      C2501   1.477       .  S
C1980      C2568   1.467       .  S
O1981      V1989   1.924       .  S
O1981      C1991   1.272       .  A
O1982      V1989   1.924   1_554  S
O1982      C1992   1.272       .  A
O1983      V1989   1.887       .  S
O1983      C1993   1.262       .  A
O1984      V1989   1.879       .  S
O1984      C1994   1.259       .  A
O1985      V1990   1.919       .  S
O1985      C1994   1.269       .  A
O1986      V1990   1.920       .  S
O1986      C1993   1.270       .  A
O1987      V1990   1.879   1_554  S
O1987      C1992   1.259       .  A
O1988      V1990   1.889       .  S
O1988      C1991   1.261       .  A
V1989      V1990   2.083       .  T
C1991      C2548   1.498       .  S
C1992      C3268   1.491       .  S
C1993      C2461   1.494       .  S
C1994      C2488   1.478       .  S
O1995      V2003   1.918   1_656  S
O1995      C2005   1.270       .  A
O1998      V2003   1.883   1_655  S
O1998      C2008   1.260       .  A
O1999      V2004   1.919       .  S
O1999      C2008   1.270       .  A
O2000      V2004   1.923       .  S
O2000      C2007   1.270   1_655  A
O2001      V2004   1.879       .  S
O2001      C2006   1.259   1_655  A
O2002      V2004   1.884       .  S
O2002      C2005   1.261   1_554  A
V2003      V2004   2.082   1_455  T
C2005      C2528   1.487       .  S
C2006      C3228   1.483       .  S
C2008      C2481   1.488       .  S
O2009      V2017   1.920       .  S
O2009      C2019   1.271       .  A
O2010      V2017   1.922       .  S
O2010      C2020   1.271       .  A
O2011      V2017   1.876       .  S
O2012      V2017   1.888       .  S
O2012      C2022   1.262       .  A
O2013      V2018   1.915       .  S
O2013      C2022   1.269       .  A
O2014      C2021   1.267       .  A
O2015      V2018   1.886       .  S
O2015      C2020   1.261       .  A
V2017      V2018   2.082       .  T
C2020      C2721   1.493       .  S
C2021      C2441   1.461       .  S
C2022      C3161   1.488       .  S
O2023      V2031   1.918       .  S
O2023      C2033   1.270       .  A
O2024      V2031   1.920       .  S
O2024      C2034   1.270       .  A
O2025      V2031   1.878       .  S
O2025      C2035   1.259       .  A
O2026      V2031   1.882       .  S
O2026      C2036   1.261       .  A
O2027      V2032   1.911       .  S
O2027      C2036   1.268       .  A
O2028      V2032   1.906       .  S
O2028      C2035   1.267       .  A
O2029      V2032   1.894       .  S
O2029      C2034   1.263       .  A
O2030      V2032   1.896       .  S
O2030      C2033   1.264       .  A
V2031      V2032   2.081       .  T
C2033      C2401   1.497       .  S
C2034      C2668   1.489       .  S
C2035      C2448   1.472       .  S
C2036      C2508   1.478       .  S
O2037      V2045   1.931       .  S
O2037      C2047   1.273       .  A
O2038      V2045   1.929       .  S
O2038      C2048   1.273       .  A
O2039      V2045   1.879       .  S
O2039      C2049   1.259       .  A
O2040      V2045   1.886       .  S
O2040      C2050   1.260       .  A
O2041      V2046   1.918       .  S
O2041      C2050   1.270       .  A
O2042      V2046   1.915       .  S
O2042      C2049   1.270       .  A
O2043      V2046   1.881       .  S
O2043      C2048   1.260       .  A
O2044      V2046   1.889       .  S
O2044      C2047   1.262       .  A
V2045      V2046   2.079       .  T
C2047      C2428   1.502       .  S
C2048      C2608   1.490       .  S
C2049      C2388   1.478       .  S
C2050      C2361   1.482       .  S
O2051      V2059   1.908       .  S
O2051      C2061   1.267       .  A
O2052      V2059   1.909       .  S
O2052      C2062   1.267       .  A
O2053      V2059   1.884       .  S
O2053      C2063   1.261   1_655  A
O2054      V2059   1.893       .  S
O2054      C2064   1.263       .  A
O2055      V2060   1.905       .  S
O2055      C2064   1.267       .  A
O2057      V2060   1.895       .  S
O2057      C2062   1.264       .  A
O2058      V2060   1.898   1_455  S
O2058      C2061   1.265   1_455  A
V2059      V2060   2.084       .  T
C2061      C2408   1.490   1_655  S
C2062      C2588   1.488       .  S
C2064      C3348   1.483       .  S
O2065      V2073   1.922       .  S
O2065      C2075   1.271       .  A
O2066      V2073   1.923       .  S
O2066      C2076   1.270       .  A
O2067      V2073   1.889       .  S
O2067      C2077   1.261       .  A
O2068      V2073   1.880       .  S
O2068      C2078   1.259       .  A
O2069      V2074   1.911       .  S
O2069      C2078   1.267       .  A
O2070      V2074   1.914       .  S
O2070      C2077   1.269       .  A
O2071      V2074   1.884       .  S
O2071      C2076   1.261       .  A
O2072      V2074   1.887       .  S
O2072      C2075   1.261       .  A
V2073      V2074   2.085       .  T
C2075      C2328   1.491       .  S
C2076      C3148   1.489       .  S
C2077      C2368   1.487       .  S
C2078      C2348   1.473       .  S
O2079      V2087   1.924       .  S
O2079      C2089   1.271   1_455  A
O2081      C2091   1.260       .  A
O2082      V2087   1.878   1_655  S
O2082      C2092   1.258       .  A
O2083      V2088   1.908       .  S
O2083      C2092   1.268       .  A
O2084      V2088   1.910   1_455  S
O2085      V2088   1.884       .  S
O2085      C2090   1.261   1_655  A
O2086      V2088   1.890       .  S
O2086      C2089   1.262       .  A
V2087      V2088   2.085   1_455  T
C2089      C2301   1.496       .  S
C2091      C2928   1.477       .  S
C2092      C2341   1.478       .  S
O2093      V2101   1.920   1_655  S
O2093      C2103   1.271       .  A
O2095      C2105   1.261       .  A
O2096      V2101   1.880   1_655  S
O2096      C2106   1.259       .  A
O2097      V2102   1.906       .  S
O2097      C2106   1.267       .  A
O2098      V2102   1.910       .  S
O2099      V2102   1.881       .  S
O2099      C2104   1.260   1_655  A
O2100      V2102   1.890       .  S
O2100      C2103   1.262       .  A
V2101      V2102   2.083   1_455  T
C2103      C2321   1.495       .  S
C2105      C2628   1.475       .  S
C2106      C2281   1.475       .  S
O2107      V2115   1.917       .  S
O2107      C2117   1.269       .  A
O2108      V2115   1.917       .  S
O2108      C2118   1.270       .  A
O2109      V2115   1.885       .  S
O2109      C2119   1.260       .  A
O2110      V2115   1.874       .  S
O2110      C2120   1.259       .  A
O2111      V2116   1.914       .  S
O2111      C2120   1.268       .  A
O2112      V2116   1.917       .  S
O2112      C2119   1.269       .  A
O2113      V2116   1.893       .  S
O2113      C2118   1.263       .  A
O2114      V2116   1.896       .  S
O2114      C2117   1.263       .  A
V2115      V2116   2.082       .  T
C2117      C2308   1.492       .  S
C2118      C2988   1.494       .  S
C2119      C2261   1.484       .  S
C2120      C2288   1.480       .  S
O2121      V2129   1.916   1_554  S
O2121      C2131   1.270       .  A
O2122      V2129   1.914       .  S
O2122      C2132   1.269       .  A
O2123      V2129   1.883       .  S
O2123      C2133   1.261       .  A
O2124      V2129   1.889       .  S
O2124      C2134   1.261       .  A
O2125      V2130   1.919       .  S
O2125      C2134   1.269       .  A
O2126      V2130   1.918       .  S
O2126      C2133   1.269       .  A
O2127      V2130   1.889       .  S
O2127      C2132   1.261       .  A
O2128      V2130   1.900       .  S
O2128      C2131   1.264   1_556  A
V2129      V2130   2.083       .  T
C2131      C2221   1.499       .  S
C2132      C2801   1.487       .  S
C2133      C2241   1.487       .  S
C2134      C2468   1.480       .  S
O2135      V2143   1.925   1_554  S
O2135      C2145   1.271       .  A
O2136      V2143   1.924       .  S
O2136      C2146   1.270       .  A
O2137      V2143   1.878       .  S
O2138      V2143   1.895       .  S
O2138      C2148   1.263       .  A
O2139      C2148   1.270       .  A
O2140      V2144   1.921       .  S
O2140      C2147   1.270       .  A
O2141      C2146   1.260       .  A
O2142      V2144   1.891       .  S
C2146      C2788   1.483       .  S
C2147      C2248   1.481       .  S
C2148      C3001   1.495       .  S
O2149      V2157   1.930       .  S
O2149      C2159   1.273       .  A
O2150      V2157   1.929       .  S
O2150      C2160   1.272       .  A
O2151      V2157   1.872       .  S
O2151      C2161   1.257       .  A
O2152      V2157   1.877       .  S
O2152      C2162   1.259       .  A
O2153      V2158   1.920       .  S
O2153      C2162   1.270       .  A
O2155      V2158   1.879       .  S
O2155      C2160   1.259       .  A
V2157      V2158   2.082       .  T
C2159      C2228   1.499       .  S
C2160      C2868   1.486       .  S
C2162      C3288   1.486       .  S
O2163      V2171   1.930       .  S
O2163      C2173   1.273       .  A
O2164      V2171   1.928       .  S
O2164      C2174   1.272       .  A
O2165      V2171   1.872       .  S
O2165      C2175   1.258       .  A
O2166      V2171   1.883       .  S
O2166      C2176   1.259       .  A
O2167      V2172   1.920       .  S
O2167      C2176   1.270       .  A
O2168      V2172   1.917       .  S
O2168      C2175   1.269       .  A
O2169      V2172   1.893       .  S
O2169      C2174   1.262       .  A
O2170      V2172   1.893       .  S
O2170      C2173   1.263       .  A
V2171      V2172   2.082       .  T
C2173      C2208   1.502       .  S
C2174      C2901   1.497       .  S
C2175      C2188   1.480       .  S
C2176      C2268   1.484       .  S
C2177      C2178   1.406       .  A
C2177      C2182   1.399       .  A
C2177      F2195   1.358       .  S
C2178      C2183   1.475       .  S
C2179      C2180   1.393       .  A
C2179      F2184   1.359       .  S
C2180      F2196   1.358       .  S
C2181      C2182   1.407       .  A
C2182      F2185   1.357       .  S
C2183      C2186   1.399       .  A
C2183      C2190   1.407       .  A
C2186      C2187   1.390       .  A
C2186      F2191   1.359       .  S
C2187      C2188   1.413       .  A
C2187      F2193   1.358       .  S
C2188      C2189   1.408       .  A
C2189      C2190   1.402       .  A
C2189      F2192   1.358       .  S
C2190      F2194   1.358       .  S
C2197      C2198   1.408       .  A
C2197      C2202   1.411       .  A
C2197      F2215   1.357       .  S
C2198      C2203   1.492       .  S
C2199      C2200   1.400       .  A
C2199      F2204   1.358       .  S
C2200      F2216   1.358       .  S
C2201      C2202   1.413       .  A
C2202      F2205   1.357       .  S
C2203      C2206   1.408       .  A
C2203      C2210   1.401       .  A
C2206      C2207   1.410       .  A
C2206      F2211   1.358       .  S
C2207      C2208   1.413       .  A
C2207      F2213   1.357       .  S
C2208      C2209   1.415       .  A
C2209      C2210   1.402       .  A
C2209      F2212   1.358       .  S
C2210      F2214   1.358       .  S
C2217      C2218   1.405       .  A
C2217      C2222   1.403       .  A
C2218      C2223   1.497       .  S
C2218      C2219   1.410       .  A
C2219      C2220   1.405       .  A
C2219      F2224   1.358       .  S
C2220      C2221   1.411       .  A
C2220      F2236   1.358       .  S
C2221      C2222   1.415       .  A
C2223      C2226   1.403       .  A
C2223      C2230   1.411       .  A
C2227      C2228   1.416   1_455  A
C2227      F2233   1.358       .  S
C2229      C2230   1.410       .  A
C2229      F2232   1.357       .  S
C2230      F2234   1.357       .  S
C2237      C2238   1.407       .  A
C2237      C2242   1.403       .  A
C2238      C2243   1.481       .  S
C2238      C2239   1.400       .  A
C2239      C2240   1.396       .  A
C2239      F2244   1.358       .  S
C2240      C2241   1.414       .  A
C2240      F2256   1.358       .  S
C2241      C2242   1.408       .  A
C2243      C2246   1.402       .  A
C2243      C2250   1.407       .  A
C2246      C2247   1.394       .  A
C2247      C2248   1.408       .  A
C2248      C2249   1.408       .  A
C2249      C2250   1.406       .  A
C2249      F2252   1.358       .  S
C2250      F2254   1.358       .  S
C2257      C2258   1.409       .  A
C2257      C2262   1.403       .  A
C2257      F2275   1.358       .  S
C2258      C2263   1.486       .  S
C2258      C2259   1.403       .  A
C2259      C2260   1.397       .  A
C2259      F2264   1.358       .  S
C2260      C2261   1.411       .  A
C2260      F2276   1.358       .  S
C2261      C2262   1.407       .  A
C2262      F2265   1.358       .  S
C2263      C2266   1.403       .  A
C2263      C2270   1.410       .  A
C2266      C2267   1.397       .  A
C2266      F2271   1.358       .  S
C2267      C2268   1.412       .  A
C2267      F2273   1.358       .  S
C2268      C2269   1.406       .  A
C2269      C2270   1.404       .  A
C2269      F2272   1.357       .  S
C2270      F2274   1.358       .  S
C2277      C2278   1.404       .  A
C2277      C2282   1.396       .  A
C2277      F2295   1.358       .  S
C2278      C2283   1.469       .  S
C2278      C2279   1.399       .  A
C2279      C2280   1.395       .  A
C2279      F2284   1.358       .  S
C2280      C2281   1.412       .  A
C2280      F2296   1.358       .  S
C2281      C2282   1.406       .  A
C2282      F2285   1.358       .  S
C2283      C2286   1.404       .  A
C2283      C2290   1.397       .  A
C2286      C2287   1.401       .  A
C2286      F2291   1.358       .  S
C2287      C2288   1.409       .  A
C2287      F2293   1.357       .  S
C2288      C2289   1.413       .  A
C2289      C2290   1.390       .  A
C2289      F2292   1.358       .  S
C2290      F2294   1.359       .  S
C2297      C2298   1.401       .  A
C2297      C2302   1.400       .  A
C2297      F2315   1.358       .  S
C2298      C2303   1.489       .  S
C2298      C2299   1.408       .  A
C2299      C2300   1.407       .  A
C2299      F2304   1.357       .  S
C2300      C2301   1.410       .  A
C2300      F2316   1.357   1_655  S
C2301      C2302   1.415       .  A
C2302      F2305   1.358       .  S
C2303      C2306   1.407       .  A
C2303      C2310   1.404       .  A
C2306      C2307   1.405       .  A
C2306      F2311   1.358       .  S
C2307      C2308   1.410       .  A
C2307      F2313   1.358       .  S
C2308      C2309   1.411       .  A
C2309      C2310   1.402       .  A
C2309      F2312   1.358       .  S
C2310      F2314   1.358       .  S
C2317      C2318   1.401       .  A
C2317      C2322   1.399       .  A
C2317      F2335   1.358       .  S
C2318      C2323   1.486       .  S
C2318      C2319   1.407       .  A
C2319      C2320   1.406       .  A
C2319      F2324   1.358       .  S
C2320      C2321   1.411       .  A
C2320      F2336   1.357   1_655  S
C2321      C2322   1.416       .  A
C2322      F2325   1.358       .  S
C2323      C2326   1.407       .  A
C2323      C2330   1.401       .  A
C2326      C2327   1.406       .  A
C2326      F2331   1.358       .  S
C2327      C2328   1.410       .  A
C2327      F2333   1.358       .  S
C2328      C2329   1.413       .  A
C2329      C2330   1.399       .  A
C2329      F2332   1.358       .  S
C2330      F2334   1.358       .  S
C2337      C2338   1.406       .  A
C2337      C2342   1.398       .  A
C2337      F2355   1.358       .  S
C2338      C2343   1.475       .  S
C2338      C2339   1.400       .  A
C2339      C2340   1.393       .  A
C2339      F2344   1.358       .  S
C2340      C2341   1.413       .  A
C2340      F2356   1.358   1_655  S
C2341      C2342   1.406       .  A
C2342      F2345   1.358       .  S
C2343      C2346   1.406       .  A
C2343      C2350   1.402       .  A
C2346      C2347   1.400       .  A
C2346      F2351   1.358       .  S
C2347      C2348   1.406       .  A
C2347      F2353   1.358       .  S
C2348      C2349   1.408       .  A
C2349      C2350   1.392       .  A
C2349      F2352   1.358       .  S
C2350      F2354   1.359       .  S
C2357      C2358   1.407       .  A
C2357      C2362   1.404       .  A
C2357      F2375   1.358       .  S
C2358      C2363   1.484       .  S
C2358      C2359   1.404       .  A
C2359      C2360   1.399       .  A
C2359      F2364   1.358       .  S
C2360      C2361   1.409       .  A
C2360      F2376   1.358       .  S
C2361      C2362   1.408       .  A
C2362      F2365   1.358       .  S
C2363      C2366   1.407       .  A
C2363      C2370   1.402       .  A
C2366      C2367   1.403       .  A
C2366      F2371   1.358       .  S
C2367      C2368   1.408       .  A
C2367      F2373   1.358       .  S
C2368      C2369   1.412       .  A
C2369      C2370   1.398       .  A
C2369      F2372   1.358       .  S
C2370      F2374   1.358       .  S
C2377      C2382   1.393       .  A
C2377      F2395   1.358       .  S
C2378      C2383   1.477       .  S
C2378      C2379   1.407       .  A
C2379      C2380   1.401       .  A
C2379      F2384   1.358       .  S
C2380      C2381   1.406       .  A
C2380      F2396   1.358       .  S
C2382      F2385   1.358       .  S
C2383      C2386   1.408       .  A
C2383      C2390   1.400       .  A
C2386      C2387   1.399       .  A
C2387      C2388   1.405       .  A
C2388      C2389   1.412       .  A
C2389      C2390   1.396       .  A
C2389      F2392   1.358       .  S
C2390      F2394   1.358       .  S
C2397      C2398   1.402       .  A
C2397      C2402   1.402       .  A
C2398      C2403   1.488       .  S
C2398      C2399   1.406       .  A
C2399      C2400   1.405       .  A
C2399      F2404   1.358       .  S
C2400      C2401   1.412       .  A
C2400      F2416   1.357       .  S
C2401      C2402   1.415       .  A
C2403      C2406   1.402       .  A
C2403      C2410   1.407       .  A
C2406      F2411   1.358       .  S
C2407      C2408   1.413       .  A
C2407      F2413   1.358       .  S
C2409      C2410   1.406       .  A
C2409      F2412   1.358       .  S
C2410      F2414   1.358       .  S
C2417      C2422   1.406   1_455  A
C2417      F2435   1.358   1_455  S
C2418      C2423   1.494       .  S
C2418      C2419   1.402       .  A
C2419      C2420   1.401       .  A
C2419      F2424   1.358       .  S
C2420      C2421   1.416       .  A
C2420      F2436   1.358       .  S
C2422      F2425   1.358       .  S
C2423      C2426   1.410       .  A
C2423      C2430   1.401       .  A
C2426      C2427   1.410       .  A
C2426      F2431   1.358       .  S
C2427      C2428   1.412       .  A
C2427      F2433   1.357       .  S
C2428      C2429   1.417       .  A
C2429      C2430   1.400       .  A
C2429      F2432   1.358       .  S
C2430      F2434   1.358       .  S
C2437      C2442   1.394       .  A
C2437      F2455   1.358       .  S
C2438      C2443   1.469       .  S
C2438      C2439   1.403       .  A
C2439      C2440   1.396       .  A
C2439      F2444   1.358       .  S
C2440      C2441   1.403       .  A
C2440      F2456   1.358       .  S
C2442      F2445   1.358       .  S
C2443      C2446   1.404       .  A
C2443      C2450   1.399       .  A
C2446      C2447   1.398       .  A
C2447      C2448   1.407       .  A
C2448      C2449   1.410       .  A
C2449      C2450   1.392       .  A
C2449      F2452   1.358       .  S
C2450      F2454   1.358       .  S
C2457      C2458   1.408       .  A
C2457      C2462   1.404       .  A
C2457      F2475   1.358       .  S
C2458      C2463   1.489       .  S
C2458      C2459   1.402       .  A
C2459      C2460   1.400       .  A
C2459      F2464   1.358       .  S
C2460      C2461   1.415       .  A
C2460      F2476   1.358       .  S
C2461      C2462   1.410       .  A
C2462      F2465   1.357       .  S
C2463      C2466   1.408       .  A
C2463      C2470   1.406   1_565  A
C2466      C2467   1.404   1_565  A
C2466      F2471   1.358       .  S
C2467      C2468   1.407       .  A
C2467      F2473   1.358       .  S
C2468      C2469   1.407       .  A
C2469      C2470   1.400       .  A
C2469      F2472   1.358   1_556  S
C2470      F2474   1.358   1_546  S
C2477      C2478   1.400       .  A
C2477      C2482   1.397       .  A
C2477      F2495   1.358       .  S
C2478      C2483   1.481       .  S
C2478      C2479   1.407       .  A
C2479      C2480   1.402       .  A
C2479      F2484   1.358       .  S
C2480      C2481   1.408       .  A
C2480      F2496   1.357       .  S
C2481      C2482   1.415       .  A
C2482      F2485   1.358   1_655  S
C2483      C2486   1.403   1_554  A
C2483      C2490   1.407       .  A
C2486      C2487   1.394       .  A
C2486      F2491   1.358       .  S
C2487      C2488   1.408       .  A
C2487      F2493   1.358       .  S
C2488      C2489   1.407   1_556  A
C2489      C2490   1.404       .  A
C2489      F2492   1.358       .  S
C2490      F2494   1.358       .  S
C2497      C2498   1.401       .  A
C2497      C2502   1.397       .  A
C2497      F2515   1.358       .  S
C2498      C2503   1.476       .  S
C2498      C2499   1.406       .  A
C2499      C2500   1.397       .  A
C2499      F2504   1.358       .  S
C2500      C2501   1.406       .  A
C2500      F2516   1.358       .  S
C2501      C2502   1.411       .  A
C2502      F2505   1.358       .  S
C2503      C2506   1.402       .  A
C2503      C2510   1.405       .  A
C2506      C2507   1.393       .  A
C2506      F2511   1.358       .  S
C2507      C2508   1.409       .  A
C2507      F2513   1.358       .  S
C2508      C2509   1.408       .  A
C2509      C2510   1.401       .  A
C2509      F2512   1.358       .  S
C2510      F2514   1.358       .  S
C2517      C2518   1.406       .  A
C2517      C2522   1.400       .  A
C2517      F2535   1.358       .  S
C2518      C2523   1.483       .  S
C2518      C2519   1.403       .  A
C2519      C2520   1.399       .  A
C2519      F2524   1.358       .  S
C2520      C2521   1.412       .  A
C2520      F2536   1.358       .  S
C2521      C2522   1.410       .  A
C2522      F2525   1.358       .  S
C2523      C2526   1.402       .  A
C2523      C2530   1.407       .  A
C2526      C2527   1.396       .  A
C2526      F2531   1.358       .  S
C2527      C2528   1.414       .  A
C2527      F2533   1.358       .  S
C2528      C2529   1.409       .  A
C2529      C2530   1.403       .  A
C2529      F2532   1.357       .  S
C2530      F2534   1.358       .  S
C2537      C2538   1.403       .  A
C2537      C2542   1.401       .  A
C2537      F2555   1.358       .  S
C2538      C2543   1.492       .  S
C2538      C2539   1.408       .  A
C2539      C2540   1.405       .  A
C2539      F2544   1.358       .  S
C2540      C2541   1.410       .  A
C2540      F2556   1.357       .  S
C2541      C2542   1.415       .  A
C2542      F2545   1.358       .  S
C2543      C2546   1.409       .  A
C2543      C2550   1.402       .  A
C2546      C2547   1.407       .  A
C2546      F2551   1.358       .  S
C2547      C2548   1.410       .  A
C2547      F2553   1.357       .  S
C2548      C2549   1.416       .  A
C2549      C2550   1.399       .  A
C2549      F2552   1.358       .  S
C2550      F2554   1.358       .  S
C2557      C2558   1.407       .  A
C2557      C2562   1.396       .  A
C2557      F2575   1.358       .  S
C2558      C2563   1.474       .  S
C2558      C2559   1.401       .  A
C2559      C2560   1.394       .  A
C2559      F2564   1.358       .  S
C2560      C2561   1.411       .  A
C2560      F2576   1.358   1_655  S
C2561      C2562   1.405       .  A
C2562      F2565   1.358       .  S
C2563      C2566   1.406       .  A
C2563      C2570   1.404       .  A
C2566      C2567   1.398       .  A
C2566      F2571   1.358       .  S
C2567      C2568   1.405       .  A
C2567      F2573   1.358       .  S
C2568      C2569   1.405       .  A
C2569      C2570   1.392       .  A
C2569      F2572   1.358       .  S
C2570      F2574   1.358       .  S
C2577      C2578   1.409       .  A
C2577      C2582   1.402       .  A
C2577      F2595   1.358       .  S
C2578      C2583   1.487       .  S
C2578      C2579   1.404       .  A
C2579      C2580   1.398       .  A
C2579      F2584   1.358       .  S
C2580      C2581   1.411       .  A
C2580      F2596   1.358       .  S
C2581      C2582   1.407       .  A
C2582      F2585   1.357       .  S
C2583      C2586   1.405       .  A
C2583      C2590   1.407       .  A
C2586      C2587   1.397       .  A
C2586      F2591   1.358       .  S
C2587      C2588   1.410       .  A
C2587      F2593   1.358       .  S
C2588      C2589   1.411       .  A
C2589      C2590   1.403       .  A
C2589      F2592   1.358       .  S
C2590      F2594   1.358       .  S
C2597      C2598   1.409       .  A
C2597      C2602   1.405       .  A
C2597      F2615   1.358       .  S
C2598      C2603   1.492       .  S
C2598      C2599   1.405       .  A
C2599      C2600   1.401       .  A
C2599      F2604   1.358       .  S
C2600      C2601   1.412       .  A
C2600      F2616   1.358       .  S
C2601      C2602   1.409       .  A
C2602      F2605   1.358       .  S
C2603      C2606   1.403       .  A
C2603      C2610   1.411       .  A
C2606      C2607   1.398       .  A
C2606      F2611   1.358       .  S
C2607      C2608   1.413       .  A
C2607      F2613   1.358       .  S
C2608      C2609   1.407       .  A
C2609      C2610   1.407       .  A
C2609      F2612   1.357       .  S
C2610      F2614   1.357       .  S
C2617      C2618   1.400       .  A
C2617      C2622   1.397       .  A
C2617      F2635   1.358       .  S
C2618      C2623   1.476       .  S
C2618      C2619   1.405       .  A
C2619      C2620   1.399       .  A
C2619      F2624   1.358       .  S
C2620      C2621   1.408       .  A
C2620      F2636   1.358       .  S
C2621      C2622   1.413       .  A
C2622      F2625   1.358       .  S
C2623      C2626   1.404       .  A
C2623      C2630   1.403       .  A
C2626      C2627   1.401       .  A
C2626      F2631   1.358       .  S
C2627      C2628   1.408       .  A
C2627      F2633   1.358       .  S
C2628      C2629   1.407       .  A
C2629      C2630   1.396       .  A
C2629      F2632   1.358       .  S
C2630      F2634   1.358       .  S
C2637      C2638   1.405       .  A
C2637      C2642   1.400       .  A
C2637      F2655   1.358       .  S
C2638      C2643   1.473       .  S
C2638      C2639   1.402       .  A
C2639      C2640   1.390       .  A
C2639      F2644   1.359       .  S
C2640      C2641   1.407       .  A
C2640      F2656   1.358       .  S
C2641      C2642   1.407       .  A
C2642      F2645   1.358       .  S
C2643      C2646   1.399       .  A
C2643      C2650   1.406       .  A
C2646      C2647   1.394       .  A
C2646      F2651   1.358       .  S
C2647      C2648   1.414       .  A
C2647      F2653   1.358       .  S
C2648      C2649   1.407       .  A
C2649      C2650   1.397       .  A
C2649      F2652   1.358       .  S
C2650      F2654   1.358       .  S
C2657      C2658   1.409       .  A
C2657      C2662   1.407       .  A
C2657      F2675   1.358       .  S
C2658      C2663   1.490       .  S
C2658      C2659   1.404       .  A
C2659      C2660   1.398       .  A
C2659      F2664   1.358       .  S
C2660      C2661   1.411       .  A
C2660      F2676   1.358       .  S
C2661      C2662   1.410       .  A
C2662      F2665   1.358       .  S
C2663      C2666   1.404       .  A
C2663      C2670   1.410       .  A
C2666      C2667   1.400       .  A
C2666      F2671   1.358       .  S
C2667      C2668   1.411       .  A
C2667      F2673   1.358       .  S
C2668      C2669   1.408       .  A
C2669      C2670   1.405       .  A
C2669      F2672   1.358       .  S
C2670      F2674   1.358       .  S
C2677      C2678   1.408       .  A
C2677      C2682   1.401       .  A
C2677      F2695   1.358       .  S
C2678      C2683   1.487       .  S
C2678      C2679   1.403       .  A
C2679      C2680   1.401       .  A
C2679      F2684   1.358       .  S
C2680      C2681   1.414       .  A
C2680      F2696   1.358       .  S
C2681      C2682   1.409       .  A
C2682      F2685   1.358       .  S
C2683      C2686   1.404       .  A
C2683      C2690   1.409       .  A
C2686      C2687   1.397       .  A
C2686      F2691   1.358       .  S
C2687      C2688   1.409       .  A
C2687      F2693   1.358   1_554  S
C2688      C2689   1.407       .  A
C2689      C2690   1.406       .  A
C2689      F2692   1.357       .  S
C2690      F2694   1.357       .  S
C2697      C2698   1.401       .  A
C2697      C2702   1.401       .  A
C2697      F2715   1.358       .  S
C2698      C2703   1.485       .  S
C2698      C2699   1.405       .  A
C2699      C2700   1.406       .  A
C2699      F2704   1.358       .  S
C2700      C2701   1.412       .  A
C2700      F2716   1.357       .  S
C2701      C2702   1.415       .  A
C2702      F2705   1.358       .  S
C2703      C2706   1.401       .  A
C2703      C2710   1.405       .  A
C2706      C2707   1.400       .  A
C2706      F2711   1.358       .  S
C2707      C2708   1.413       .  A
C2707      F2713   1.358       .  S
C2708      C2709   1.412       .  A
C2709      C2710   1.406       .  A
C2709      F2712   1.357       .  S
C2710      F2714   1.358       .  S
C2717      C2718   1.408       .  A
C2717      C2722   1.406       .  A
C2717      F2735   1.358       .  S
C2718      C2723   1.488       .  S
C2718      C2719   1.403       .  A
C2719      C2720   1.398       .  A
C2719      F2724   1.358       .  S
C2720      C2721   1.413       .  A
C2720      F2736   1.358       .  S
C2721      C2722   1.411       .  A
C2722      F2725   1.357       .  S
C2723      C2726   1.402       .  A
C2723      C2730   1.410       .  A
C2726      C2727   1.397       .  A
C2726      F2731   1.358       .  S
C2727      C2728   1.412       .  A
C2727      F2733   1.358       .  S
C2728      C2729   1.409       .  A
C2729      C2730   1.406       .  A
C2729      F2732   1.358       .  S
C2730      F2734   1.358       .  S
C2737      C2738   1.401       .  A
C2737      C2742   1.401       .  A
C2737      F2755   1.358       .  S
C2738      C2743   1.487       .  S
C2738      C2739   1.406       .  A
C2739      C2740   1.406       .  A
C2739      F2744   1.358       .  S
C2740      C2741   1.412       .  A
C2740      F2756   1.357       .  S
C2741      C2742   1.415       .  A
C2742      F2745   1.358       .  S
C2743      C2746   1.401       .  A
C2743      C2750   1.406       .  A
C2746      C2747   1.401       .  A
C2746      F2751   1.358       .  S
C2747      C2748   1.416       .  A
C2747      F2753   1.358       .  S
C2748      C2749   1.412       .  A
C2749      C2750   1.406       .  A
C2749      F2752   1.357       .  S
C2750      F2754   1.357       .  S
C2757      C2758   1.408       .  A
C2757      C2762   1.399       .  A
C2757      F2775   1.358   1_556  S
C2758      C2763   1.479       .  S
C2758      C2759   1.403       .  A
C2759      C2760   1.395       .  A
C2759      F2764   1.358       .  S
C2760      C2761   1.407       .  A
C2760      F2776   1.358       .  S
C2761      C2762   1.404       .  A
C2762      F2765   1.358       .  S
C2763      C2766   1.407   1_556  A
C2763      C2770   1.406       .  A
C2766      C2767   1.396       .  A
C2766      F2771   1.358       .  S
C2767      C2768   1.403       .  A
C2767      F2773   1.358       .  S
C2768      C2769   1.405   1_554  A
C2769      C2770   1.399       .  A
C2769      F2772   1.358       .  S
C2770      F2774   1.358       .  S
C2777      C2778   1.401       .  A
C2777      C2782   1.399       .  A
C2777      F2795   1.358       .  S
C2778      C2783   1.486       .  S
C2778      C2779   1.409       .  A
C2779      C2780   1.407       .  A
C2779      F2784   1.358       .  S
C2780      C2781   1.407       .  A
C2780      F2796   1.357       .  S
C2781      C2782   1.413       .  A
C2782      F2785   1.358       .  S
C2783      C2786   1.409       .  A
C2783      C2790   1.403       .  A
C2786      C2787   1.408       .  A
C2786      F2791   1.358       .  S
C2787      C2788   1.408       .  A
C2787      F2793   1.358       .  S
C2788      C2789   1.408       .  A
C2789      C2790   1.397       .  A
C2790      F2794   1.358       .  S
C2797      C2798   1.407       .  A
C2797      C2802   1.402       .  A
C2797      F2815   1.358       .  S
C2798      C2803   1.485       .  S
C2798      C2799   1.403       .  A
C2799      C2800   1.398       .  A
C2799      F2804   1.358       .  S
C2800      C2801   1.412       .  A
C2800      F2816   1.358       .  S
C2801      C2802   1.409       .  A
C2802      F2805   1.358       .  S
C2803      C2806   1.401       .  A
C2803      C2810   1.408       .  A
C2806      C2807   1.396       .  A
C2806      F2811   1.358       .  S
C2807      C2808   1.414       .  A
C2807      F2813   1.358       .  S
C2808      C2809   1.410       .  A
C2809      C2810   1.405       .  A
C2809      F2812   1.357       .  S
C2810      F2814   1.358       .  S
C2817      C2818   1.408       .  A
C2817      C2822   1.401   1_565  A
C2817      F2835   1.358       .  S
C2818      C2823   1.477       .  S
C2818      C2819   1.398   1_565  A
C2819      C2820   1.393       .  A
C2819      F2824   1.358       .  S
C2820      C2821   1.415       .  A
C2820      F2836   1.358       .  S
C2821      C2822   1.408       .  A
C2822      F2825   1.358       .  S
C2823      C2826   1.402       .  A
C2823      C2830   1.408       .  A
C2826      C2827   1.393       .  A
C2826      F2831   1.358       .  S
C2827      C2828   1.407       .  A
C2827      F2833   1.359       .  S
C2828      C2829   1.404       .  A
C2829      C2830   1.400       .  A
C2829      F2832   1.358       .  S
C2830      F2834   1.358       .  S
C2837      C2838   1.407       .  A
C2837      C2842   1.402       .  A
C2837      F2855   1.358       .  S
C2838      C2843   1.475       .  S
C2838      C2839   1.397       .  A
C2839      C2840   1.391       .  A
C2839      F2844   1.359       .  S
C2840      C2841   1.416       .  A
C2840      F2856   1.358       .  S
C2841      C2842   1.408       .  A
C2842      F2845   1.357       .  S
C2843      C2846   1.401       .  A
C2843      C2850   1.408       .  A
C2846      C2847   1.392       .  A
C2846      F2851   1.358       .  S
C2847      C2848   1.409       .  A
C2847      F2853   1.359       .  S
C2848      C2849   1.403       .  A
C2849      C2850   1.400       .  A
C2849      F2852   1.358       .  S
C2850      F2854   1.358       .  S
C2857      C2858   1.406       .  A
C2857      C2862   1.400       .  A
C2857      F2875   1.358       .  S
C2858      C2863   1.491       .  S
C2858      C2859   1.409       .  A
C2859      C2860   1.405       .  A
C2859      F2864   1.358       .  S
C2860      C2861   1.408       .  A
C2860      F2876   1.358       .  S
C2861      C2862   1.408       .  A
C2862      F2865   1.358       .  S
C2863      C2866   1.411       .  A
C2863      C2870   1.404       .  A
C2866      C2867   1.406       .  A
C2866      F2871   1.357       .  S
C2867      C2868   1.405       .  A
C2867      F2873   1.357       .  S
C2868      C2869   1.412       .  A
C2869      C2870   1.398       .  A
C2869      F2872   1.359       .  S
C2870      F2874   1.358       .  S
C2877      C2878   1.409       .  A
C2877      C2882   1.407       .  A
C2877      F2895   1.358       .  S
C2878      C2883   1.492       .  S
C2878      C2879   1.403       .  A
C2879      C2880   1.400       .  A
C2879      F2884   1.358       .  S
C2880      C2881   1.413       .  A
C2880      F2896   1.358       .  S
C2881      C2882   1.411       .  A
C2882      F2885   1.357       .  S
C2883      C2886   1.408       .  A
C2883      C2890   1.405       .  A
C2886      C2887   1.404       .  A
C2886      F2891   1.358       .  S
C2887      C2888   1.410       .  A
C2887      F2893   1.358       .  S
C2888      C2889   1.413       .  A
C2889      C2890   1.402       .  A
C2889      F2892   1.358       .  S
C2890      F2894   1.358       .  S
C2897      C2898   1.403       .  A
C2897      C2902   1.402       .  A
C2897      F2915   1.358       .  S
C2898      C2903   1.495       .  S
C2898      C2899   1.410       .  A
C2899      C2900   1.409       .  A
C2899      F2904   1.358       .  S
C2900      C2901   1.409       .  A
C2900      F2916   1.357       .  S
C2901      C2902   1.414       .  A
C2902      F2905   1.358       .  S
C2903      C2906   1.410       .  A
C2903      C2910   1.403       .  A
C2906      C2907   1.410       .  A
C2906      F2911   1.357       .  S
C2907      C2908   1.410       .  A
C2907      F2913   1.357       .  S
C2908      C2909   1.413       .  A
C2909      C2910   1.400       .  A
C2909      F2912   1.358       .  S
C2910      F2914   1.358       .  S
C2917      C2918   1.404       .  A
C2917      C2922   1.397       .  A
C2917      F2935   1.358       .  S
C2918      C2923   1.483       .  S
C2918      C2919   1.408       .  A
C2919      C2920   1.399       .  A
C2919      F2924   1.358       .  S
C2920      C2921   1.406       .  A
C2920      F2936   1.358       .  S
C2921      C2922   1.412       .  A
C2922      F2925   1.358       .  S
C2923      C2926   1.402       .  A
C2923      C2930   1.411       .  A
C2926      C2927   1.392       .  A
C2926      F2931   1.358       .  S
C2927      C2928   1.409       .  A
C2927      F2933   1.358       .  S
C2928      C2929   1.405       .  A
C2929      C2930   1.403       .  A
C2929      F2932   1.357       .  S
C2930      F2934   1.358       .  S
C2937      C2938   1.407       .  A
C2937      C2942   1.410       .  A
C2937      F2955   1.358       .  S
C2938      C2943   1.492       .  S
C2938      C2939   1.402       .  A
C2939      C2940   1.404       .  A
C2939      F2944   1.358       .  S
C2940      C2941   1.415       .  A
C2940      F2956   1.358       .  S
C2941      C2942   1.411       .  A
C2942      F2945   1.357       .  S
C2943      C2946   1.407       .  A
C2943      C2950   1.401       .  A
C2946      C2947   1.410       .  A
C2946      F2951   1.357       .  S
C2947      C2948   1.412       .  A
C2947      F2953   1.357       .  S
C2948      C2949   1.417       .  A
C2949      C2950   1.402       .  A
C2949      F2952   1.358       .  S
C2950      F2954   1.358       .  S
C2957      C2958   1.402       .  A
C2957      C2962   1.389       .  A
C2957      F2975   1.359       .  S
C2958      C2963   1.472       .  S
C2958      C2959   1.406       .  A
C2959      C2960   1.399       .  A
C2959      F2964   1.358       .  S
C2960      C2961   1.406       .  A
C2960      F2976   1.358       .  S
C2961      C2962   1.408       .  A
C2962      F2965   1.359       .  S
C2963      C2966   1.406       .  A
C2963      C2970   1.400       .  A
C2966      C2967   1.397       .  A
C2966      F2971   1.358       .  S
C2967      C2968   1.406       .  A
C2967      F2973   1.358       .  S
C2968      C2969   1.412       .  A
C2969      C2970   1.391       .  A
C2969      F2972   1.358       .  S
C2970      F2974   1.358       .  S
C2977      C2978   1.409       .  A
C2977      C2982   1.407       .  A
C2977      F2995   1.357       .  S
C2978      C2983   1.486       .  S
C2978      C2979   1.400       .  A
C2979      C2980   1.395       .  A
C2979      F2984   1.358       .  S
C2980      C2981   1.415       .  A
C2980      F2996   1.358       .  S
C2981      C2982   1.410       .  A
C2982      F2985   1.357       .  S
C2983      C2986   1.407       .  A
C2983      C2990   1.402       .  A
C2986      C2987   1.405       .  A
C2986      F2991   1.358       .  S
C2987      C2988   1.411       .  A
C2987      F2993   1.357       .  S
C2988      C2989   1.414       .  A
C2989      C2990   1.399       .  A
C2989      F2992   1.358       .  S
C2990      F2994   1.358       .  S
C2997      C2998   1.410       .  A
C2997      C3002   1.406       .  A
C2997      F3015   1.358       .  S
C2998      C3003   1.494       .  S
C2998      C2999   1.404       .  A
C2999      C3000   1.400       .  A
C2999      F3004   1.358       .  S
C3000      C3001   1.414       .  A
C3000      F3016   1.358       .  S
C3001      C3002   1.410       .  A
C3002      F3005   1.358       .  S
C3003      C3006   1.406       .  A
C3003      C3010   1.409       .  A
C3006      C3007   1.402       .  A
C3006      F3011   1.358       .  S
C3007      C3008   1.410       .  A
C3007      F3013   1.358       .  S
C3008      C3009   1.407       .  A
C3009      C3010   1.404       .  A
C3009      F3012   1.358       .  S
C3010      F3014   1.358   1_556  S
C3017      C3018   1.402       .  A
C3017      C3022   1.394       .  A
C3017      F3035   1.358       .  S
C3018      C3023   1.487       .  S
C3019      C3020   1.406       .  A
C3019      F3024   1.357       .  S
C3020      F3036   1.357       .  S
C3021      C3022   1.414       .  A
C3022      F3025   1.358       .  S
C3023      C3026   1.404       .  A
C3023      C3030   1.408       .  A
C3026      C3027   1.399       .  A
C3026      F3031   1.358       .  S
C3027      C3028   1.412       .  A
C3027      F3033   1.358       .  S
C3028      C3029   1.408       .  A
C3029      C3030   1.401       .  A
C3029      F3032   1.358       .  S
C3030      F3034   1.358       .  S
C3037      C3042   1.406       .  A
C3037      F3055   1.358       .  S
C3038      C3043   1.486       .  S
C3038      C3039   1.402       .  A
C3039      F3044   1.358       .  S
C3040      C3041   1.414       .  A
C3040      F3056   1.358       .  S
C3041      C3042   1.410       .  A
C3042      F3045   1.357       .  S
C3043      C3046   1.408       .  A
C3043      C3050   1.405       .  A
C3046      C3047   1.401       .  A
C3046      F3051   1.358       .  S
C3047      C3048   1.405       .  A
C3047      F3053   1.358       .  S
C3048      C3049   1.409       .  A
C3049      C3050   1.399       .  A
C3049      F3052   1.358   1_556  S
C3050      F3054   1.358   1_556  S
C3057      C3058   1.409       .  A
C3057      C3062   1.400       .  A
C3057      F3075   1.358       .  S
C3058      C3063   1.479       .  S
C3058      C3059   1.404       .  A
C3059      C3060   1.396       .  A
C3059      F3064   1.358   1_556  S
C3060      C3061   1.405       .  A
C3060      F3076   1.358   1_556  S
C3061      C3062   1.401       .  A
C3062      F3065   1.358       .  S
C3063      C3066   1.400       .  A
C3063      C3070   1.409       .  A
C3066      C3067   1.393       .  A
C3066      F3071   1.358       .  S
C3067      C3068   1.412       .  A
C3067      F3073   1.358       .  S
C3068      C3069   1.406       .  A
C3069      C3070   1.403       .  A
C3069      F3072   1.357       .  S
C3070      F3074   1.358       .  S
C3077      C3078   1.402       .  A
C3077      C3082   1.395       .  A
C3077      F3095   1.358       .  S
C3078      C3083   1.484       .  S
C3078      C3079   1.409       .  A
C3080      F3096   1.358       .  S
C3081      C3082   1.410       .  A
C3082      F3085   1.358       .  S
C3083      C3086   1.400       .  A
C3083      C3090   1.410       .  A
C3086      C3087   1.396       .  A
C3086      F3091   1.358       .  S
C3087      C3088   1.414       .  A
C3087      F3093   1.358       .  S
C3088      C3089   1.407       .  A
C3089      C3090   1.406       .  A
C3089      F3092   1.357       .  S
C3090      F3094   1.358       .  S
C3097      C3098   1.411       .  A
C3097      C3102   1.406       .  A
C3097      F3115   1.358       .  S
C3098      C3099   1.403       .  A
C3099      C3100   1.396       .  A
C3100      C3101   1.414       .  A
C3100      F3116   1.359       .  S
C3101      C3102   1.408       .  A
C3102      F3105   1.357       .  S
C3103      C3106   1.407       .  A
C3103      C3110   1.411       .  A
C3106      C3107   1.402       .  A
C3107      C3108   1.409       .  A
C3107      F3113   1.358       .  S
C3108      C3109   1.406       .  A
C3109      C3110   1.405       .  A
C3109      F3112   1.358       .  S
C3110      F3114   1.358       .  S
C3117      C3118   1.406       .  A
C3117      C3122   1.406       .  A
C3117      F3135   1.357       .  S
C3118      C3123   1.486       .  S
C3118      C3119   1.402       .  A
C3119      C3120   1.403       .  A
C3119      F3124   1.358       .  S
C3120      C3121   1.413       .  A
C3120      F3136   1.358       .  S
C3121      C3122   1.410       .  A
C3122      F3125   1.357       .  S
C3123      C3126   1.399       .  A
C3123      C3130   1.407       .  A
C3126      C3127   1.398       .  A
C3126      F3131   1.358       .  S
C3127      C3128   1.417       .  A
C3127      F3133   1.358       .  S
C3128      C3129   1.412       .  A
C3129      C3130   1.409       .  A
C3129      F3132   1.357       .  S
C3130      F3134   1.357       .  S
C3137      C3138   1.404       .  A
C3137      C3142   1.400       .  A
C3137      F3155   1.358       .  S
C3138      C3143   1.485       .  S
C3138      C3139   1.406       .  A
C3139      C3140   1.404       .  A
C3139      F3144   1.358       .  S
C3140      C3141   1.409       .  A
C3140      F3156   1.357       .  S
C3141      C3142   1.411       .  A
C3142      F3145   1.358       .  S
C3143      C3146   1.401       .  A
C3143      C3150   1.408       .  A
C3146      C3147   1.396       .  A
C3146      F3151   1.358       .  S
C3147      C3148   1.413       .  A
C3147      F3153   1.358       .  S
C3148      C3149   1.409       .  A
C3149      C3150   1.406       .  A
C3149      F3152   1.357       .  S
C3150      F3154   1.358       .  S
C3157      C3158   1.401       .  A
C3157      C3162   1.397       .  A
C3157      F3175   1.358       .  S
C3158      C3163   1.483       .  S
C3158      C3159   1.408       .  A
C3159      C3160   1.403       .  A
C3159      F3164   1.358       .  S
C3160      C3161   1.409       .  A
C3160      F3176   1.358       .  S
C3161      C3162   1.413       .  A
C3162      F3165   1.358       .  S
C3163      C3166   1.408       .  A
C3163      C3170   1.403       .  A
C3166      C3167   1.404       .  A
C3166      F3171   1.358       .  S
C3167      C3168   1.407       .  A
C3167      F3173   1.358       .  S
C3168      C3169   1.407       .  A
C3169      C3170   1.397       .  A
C3169      F3172   1.358       .  S
C3170      F3174   1.358       .  S
C3177      C3178   1.407       .  A
C3177      C3182   1.404       .  A
C3177      F3195   1.358       .  S
C3178      C3183   1.494       .  S
C3178      C3179   1.406       .  A
C3179      C3180   1.405       .  A
C3179      F3184   1.358       .  S
C3180      C3181   1.414       .  A
C3180      F3196   1.358       .  S
C3181      C3182   1.412       .  A
C3182      F3185   1.357       .  S
C3183      C3186   1.404       .  A
C3183      C3190   1.408       .  A
C3186      C3187   1.401       .  A
C3186      F3191   1.358       .  S
C3187      C3188   1.414       .  A
C3187      F3193   1.358       .  S
C3188      C3189   1.411       .  A
C3189      C3190   1.407       .  A
C3189      F3192   1.357       .  S
C3190      F3194   1.358       .  S
C3197      C3198   1.407       .  A
C3197      C3202   1.404       .  A
C3197      F3215   1.358       .  S
C3198      C3203   1.478       .  S
C3198      C3199   1.399       .  A
C3199      C3200   1.393       .  A
C3199      F3204   1.358       .  S
C3200      C3201   1.414       .  A
C3200      F3216   1.358       .  S
C3201      C3202   1.409       .  A
C3202      F3205   1.357       .  S
C3203      C3206   1.408       .  A
C3203      C3210   1.402       .  A
C3206      C3207   1.402       .  A
C3206      F3211   1.358       .  S
C3207      C3208   1.405       .  A
C3207      F3213   1.358       .  S
C3208      C3209   1.407       .  A
C3209      C3210   1.395       .  A
C3209      F3212   1.358       .  S
C3210      F3214   1.358       .  S
C3217      C3218   1.400       .  A
C3217      C3222   1.396       .  A
C3217      F3235   1.358       .  S
C3218      C3223   1.475       .  S
C3218      C3219   1.403       .  A
C3219      C3220   1.402       .  A
C3220      C3221   1.410       .  A
C3220      F3236   1.357       .  S
C3221      C3222   1.412       .  A
C3222      F3225   1.358       .  S
C3223      C3226   1.398       .  A
C3223      C3230   1.405       .  A
C3226      C3227   1.394       .  A
C3226      F3231   1.358       .  S
C3227      F3233   1.358       .  S
C3228      C3229   1.406       .  A
C3229      F3232   1.357       .  S
C3237      C3238   1.405       .  A
C3237      F3255   1.358       .  S
C3238      C3243   1.489       .  S
C3239      C3240   1.400       .  A
C3239      F3244   1.358       .  S
C3240      C3241   1.409       .  A
C3240      F3256   1.358       .  S
C3241      C3242   1.413       .  A
C3242      F3245   1.358       .  S
C3243      C3246   1.407       .  A
C3243      C3250   1.409       .  A
C3246      C3247   1.397       .  A
C3246      F3251   1.358       .  S
C3247      C3248   1.406       .  A
C3247      F3253   1.358       .  S
C3248      C3249   1.406       .  A
C3249      C3250   1.402       .  A
C3249      F3252   1.358       .  S
C3250      F3254   1.357       .  S
C3257      C3258   1.402       .  A
C3257      C3262   1.398       .  A
C3257      F3275   1.358       .  S
C3258      C3263   1.486       .  S
C3258      C3259   1.408       .  A
C3259      C3260   1.403       .  A
C3259      F3264   1.358       .  S
C3260      C3261   1.409       .  A
C3260      F3276   1.357       .  S
C3261      C3262   1.416       .  A
C3262      F3265   1.358       .  S
C3263      C3266   1.401       .  A
C3263      C3270   1.409       .  A
C3266      C3267   1.395       .  A
C3266      F3271   1.359       .  S
C3267      C3268   1.416       .  A
C3267      F3273   1.358       .  S
C3268      C3269   1.409       .  A
C3269      C3270   1.406       .  A
C3269      F3272   1.357       .  S
C3270      F3274   1.357       .  S
C3277      C3278   1.409       .  A
C3277      C3282   1.401       .  A
C3277      F3295   1.358       .  S
C3278      C3283   1.485   1_565  S
C3278      C3279   1.405       .  A
C3279      C3280   1.398       .  A
C3279      F3284   1.358       .  S
C3280      C3281   1.408       .  A
C3280      F3296   1.358       .  S
C3281      C3282   1.405       .  A
C3282      F3285   1.358       .  S
C3283      C3286   1.401       .  A
C3283      C3290   1.409       .  A
C3286      C3287   1.394       .  A
C3286      F3291   1.358       .  S
C3287      C3288   1.414       .  A
C3287      F3293   1.358       .  S
C3288      C3289   1.407       .  A
C3289      C3290   1.404       .  A
C3289      F3292   1.357       .  S
C3290      F3294   1.358   1_545  S
C3297      C3298   1.400       .  A
C3297      C3302   1.396       .  A
C3297      F3315   1.358       .  S
C3298      C3303   1.476       .  S
C3298      C3299   1.406       .  A
C3299      C3300   1.398       .  A
C3299      F3304   1.358       .  S
C3300      C3301   1.407       .  A
C3300      F3316   1.357       .  S
C3301      C3302   1.415       .  A
C3302      F3305   1.358       .  S
C3303      C3306   1.403       .  A
C3303      C3310   1.405       .  A
C3306      C3307   1.394       .  A
C3306      F3311   1.358       .  S
C3307      C3308   1.406       .  A
C3307      F3313   1.358       .  S
C3308      C3309   1.408       .  A
C3309      C3310   1.401       .  A
C3309      F3312   1.358       .  S
C3310      F3314   1.358       .  S
C3317      C3318   1.404       .  A
C3317      C3322   1.396       .  A
C3317      F3335   1.358       .  S
C3318      C3323   1.486       .  S
C3318      C3319   1.408       .  A
C3319      C3320   1.401       .  A
C3319      F3324   1.358       .  S
C3320      C3321   1.408       .  A
C3320      F3336   1.357       .  S
C3321      C3322   1.412       .  A
C3322      F3325   1.358       .  S
C3323      C3326   1.404       .  A
C3323      C3330   1.407       .  A
C3326      C3327   1.396       .  A
C3326      F3331   1.358       .  S
C3327      C3328   1.413       .  A
C3327      F3333   1.358       .  S
C3328      C3329   1.410       .  A
C3329      C3330   1.402       .  A
C3329      F3332   1.357       .  S
C3330      F3334   1.358       .  S
C3337      C3338   1.408       .  A
C3337      C3342   1.404       .  A
C3337      F3355   1.358       .  S
C3338      C3343   1.481       .  S
C3338      C3339   1.402       .  A
C3339      C3340   1.394       .  A
C3339      F3344   1.358       .  S
C3340      C3341   1.409       .  A
C3340      F3356   1.358       .  S
C3341      C3342   1.406       .  A
C3342      F3345   1.358       .  S
C3343      C3346   1.402       .  A
C3343      C3350   1.407       .  A
C3346      C3347   1.398       .  A
C3346      F3351   1.358       .  S
C3347      C3348   1.412       .  A
C3347      F3353   1.358       .  S
C3348      C3349   1.408       .  A
C3349      C3350   1.399       .  A
C3349      F3352   1.358       .  S
C3350      F3354   1.358       .  S
C3357      C3358   1.405       .  A
C3357      C3362   1.403       .  A
C3357      F3375   1.358       .  S
C3358      C3363   1.482       .  S
C3358      C3359   1.402       .  A
C3359      C3360   1.399       .  A
C3359      F3364   1.358       .  S
C3360      C3361   1.413       .  A
C3360      F3376   1.358       .  S
C3361      C3362   1.411       .  A
C3362      F3365   1.357       .  S
C3363      C3366   1.401       .  A
C3363      C3370   1.405       .  A
C3366      C3367   1.399       .  A
C3366      F3371   1.358       .  S
C3367      C3368   1.414       .  A
C3367      F3373   1.358       .  S
C3368      C3369   1.411       .  A
C3369      C3370   1.403       .  A
C3369      F3372   1.357       .  S
C3370      F3374   1.358       .  S
C3377      C3378   1.410       .  A
C3377      C3382   1.406       .  A
C3377      F3395   1.358       .  S
C3378      C3383   1.492       .  S
C3378      C3379   1.407       .  A
C3379      C3380   1.398       .  A
C3379      F3384   1.358       .  S
C3380      C3381   1.407       .  A
C3380      F3396   1.358       .  S
C3381      C3382   1.408       .  A
C3382      F3385   1.358       .  S
C3383      C3386   1.411       .  A
C3383      C3390   1.406       .  A
C3386      C3387   1.404       .  A
C3386      F3391   1.358       .  S
C3387      C3388   1.405       .  A
C3387      F3393   1.358       .  S
C3389      F3392   1.358       .  S
C3390      F3394   1.358       .  S
C3397      C3402   1.400       .  A
C3397      F3415   1.358       .  S
C3398      C3403   1.481       .  S
C3398      C3399   1.402       .  A
C3399      F3404   1.358       .  S
C3400      C3401   1.412       .  A
C3400      F3416   1.358       .  S
C3401      C3402   1.409       .  A
C3402      F3405   1.358       .  S
C3403      C3406   1.408       .  A
C3403      C3410   1.405   1_565  A
C3406      C3407   1.399   1_565  A
C3406      F3411   1.358       .  S
C3407      C3408   1.404       .  A
C3407      F3413   1.358       .  S
C3408      C3409   1.405       .  A
C3409      C3410   1.397       .  A
C3409      F3412   1.358       .  S
C3410      F3414   1.358   1_545  S
C3417      C3418   1.408       .  A
C3417      C3422   1.404       .  A
C3417      F3435   1.358       .  S
C3418      C3423   1.489       .  S
C3418      C3419   1.407       .  A
C3419      C3420   1.400       .  A
C3419      F3424   1.358       .  S
C3420      C3421   1.406       .  A
C3420      F3436   1.358       .  S
C3421      C3422   1.406       .  A
C3422      F3425   1.358       .  S
C3423      C3426   1.403       .  A
C3423      C3430   1.407       .  A
C3426      C3427   1.399       .  A
C3426      F3431   1.358       .  S
C3427      C3428   1.413       .  A
C3427      F3433   1.358       .  S
C3428      C3429   1.412       .  A
C3429      C3430   1.405       .  A
C3429      F3432   1.357       .  S
C3430      F3434   1.358       .  S
C3437      C3438   1.404       .  A
C3437      C3442   1.394       .  A
C3437      F3455   1.358       .  S
C3438      C3443   1.475       .  S
C3438      C3439   1.405       .  A
C3439      C3440   1.397       .  A
C3439      F3444   1.358       .  S
C3440      C3441   1.405       .  A
C3440      F3456   1.358       .  S
C3441      C3442   1.406       .  A
C3442      F3445   1.358       .  S
C3443      C3446   1.399       .  A
C3443      C3450   1.408       .  A
C3446      C3447   1.390       .  A
C3446      F3451   1.358       .  S
C3447      C3448   1.412       .  A
C3447      F3453   1.358       .  S
C3448      C3449   1.406       .  A
C3449      C3450   1.401       .  A
C3449      F3452   1.358       .  S
C3450      F3454   1.358       .  S
