geometry optimzed in LAMMPS
_audit_creation_date              2020-12-01 
_audit_creation_method            'lammps2cif' 
_symmetry_space_group_name_H-M    'P1' 
_symmetry_Int_Tables_number       1 
_symmetry_cell_setting            triclinic 
loop_ 
_symmetry_equiv_pos_as_xyz 
  x,y,z 
_cell_length_a                    29.04041125 
_cell_length_b                    47.077953122660524 
_cell_length_c                    27.89406347478987 
_cell_angle_alpha                 90.12971183127654 
_cell_angle_beta                  98.04749548100696 
_cell_angle_gamma                 89.88472480779103 
loop_ 
_atom_site_label 
_atom_site_type_symbol 
_atom_site_fract_x 
_atom_site_fract_y 
_atom_site_fract_z 
_atom_site_charge 
Fe1        Fe  0.23653581  0.62211413  0.68316091     1.65800
Fe2        Fe  0.16939763  0.60490542  0.57775792     1.73200
Fe3        Fe  0.24468643  0.55726593  0.63223609     1.54400
O4          O  0.30846619  0.56992938  0.66909699    -0.81000
O5          O  0.13053580  0.57025996  0.58909288    -0.79300
O6          O  0.30584852  0.61680300  0.67749754    -0.83500
O7          O  0.23842636  0.58964066  0.73641661    -0.78400
O8          O  0.26830366  0.56447903  0.56763493    -0.80200
O9          O  0.12864846  0.62709459  0.62127885    -0.82900
C10         C  0.22685281  0.56328174  0.73503445     0.97900
C11         C  0.32793372  0.59356444  0.68035655     1.05300
O12         O  0.21702874  0.59507196  0.63111068    -1.11900
O13         O  0.20422821  0.64068072  0.56272099    -0.74300
O14         O  0.23585883  0.65703491  0.63488359    -0.77800
O15         O  0.22158846  0.54894656  0.69612354    -0.78500
C16         C  0.22479695  0.66011285  0.58904073     0.96800
O17         O  0.16952098  0.63000599  0.69486350    -0.76500
O18         O  0.20308723  0.58231958  0.52739813    -0.81600
C19         C  0.14327793  0.54478949  0.58621041     0.99400
C20         C  0.24177782  0.56916014  0.52827050     1.05300
O21         O  0.18553058  0.53730706  0.59610090    -0.77300
C22         C  0.13173251  0.63227878  0.66643495     1.03600
Fe23       Fe  0.75180932  0.62155936  0.82401245     1.65800
Fe24       Fe  0.82316813  0.60550612  0.92612404     1.73200
Fe25       Fe  0.75086771  0.55637295  0.87306602     1.54400
O26         O  0.68494886  0.56753667  0.83869549    -0.81000
O27         O  0.86441258  0.57338109  0.90836081    -0.79300
O28         O  0.68398186  0.61455309  0.83360784    -0.83500
O29         O  0.74841623  0.58975748  0.76954206    -0.78400
O30         O  0.72910604  0.56230340  0.93867666    -0.80200
O31         O  0.85863747  0.63151672  0.88278955    -0.82900
C32         C  0.76095135  0.56360390  0.76937240     0.97900
C33         C  0.66326512  0.59084758  0.82991536     1.05300
O34         O  0.77491727  0.59479596  0.87435120    -1.11900
O35         O  0.78442815  0.63850952  0.94523035    -0.74300
O36         O  0.75325753  0.65575448  0.87365432    -0.77800
O37         O  0.77225856  0.54950331  0.80789872    -0.78500
C38         C  0.76372453  0.65812078  0.91970136     0.96800
O39         O  0.81736306  0.63050286  0.80973555    -0.76500
O40         O  0.79533434  0.57971018  0.97703181    -0.81600
C41         C  0.85464846  0.54768606  0.91422683     0.99400
C42         C  0.75780078  0.56547670  0.97688557     1.05300
O43         O  0.81302474  0.53865254  0.90737967    -0.77300
C44         C  0.85475093  0.63587539  0.83739480     1.03600
Fe45       Fe  0.74689423  0.38271913  0.32123624     1.65800
Fe46       Fe  0.82051054  0.39412979  0.42193752     1.73200
Fe47       Fe  0.75724029  0.44756846  0.37186919     1.54400
O48         O  0.77878981  0.45243056  0.30589339    -0.81000
O49         O  0.79976448  0.42221683  0.47415261    -0.79300
O50         O  0.74239474  0.41513990  0.26834608    -0.83500
O51         O  0.68152197  0.39235107  0.33560310    -0.78400
O52         O  0.82346264  0.46097005  0.40625214    -0.80200
O53         O  0.77566519  0.36516030  0.44167620    -0.82900
C54         C  0.66371942  0.41701857  0.33077287     0.97900
C55         C  0.76124154  0.43967672  0.26761347     1.05300
O56         O  0.77393993  0.40790754  0.37200813    -1.11900
O57         O  0.84901516  0.36519668  0.37691924    -0.74300
O58         O  0.81130298  0.37325381  0.30357192    -0.77800
O59         O  0.68865734  0.43937038  0.33863203    -0.78500
C60         C  0.84744248  0.36524483  0.33103939     0.96800
O61         O  0.74884033  0.34743028  0.36904952    -0.76500
O62         O  0.86581506  0.42253169  0.40159538    -0.81600
C63         C  0.76491237  0.43864572  0.47591383     0.99400
C64         C  0.86259097  0.44812837  0.41334746     1.05300
O65         O  0.73607482  0.44368941  0.43835231    -0.77300
C66         C  0.75789934  0.34506245  0.41522202     1.03600
Fe67       Fe  0.24567071  0.38514676  0.18538565     1.65800
Fe68       Fe  0.16558595  0.39671292  0.08871539     1.73200
Fe69       Fe  0.23746524  0.44907862  0.13035367     1.54400
O70         O  0.22377473  0.45713544  0.19849024    -0.81000
O71         O  0.18444338  0.42224912  0.03250975    -0.79300
O72         O  0.25521291  0.41863421  0.23683611    -0.83500
O73         O  0.31103675  0.39254843  0.16701453    -0.78400
O74         O  0.17117543  0.46443766  0.10202348    -0.80200
O75         O  0.20415042  0.36445413  0.06695346    -0.82900
C76         C  0.32990666  0.41691752  0.16810590     0.97900
C77         C  0.24246209  0.44472734  0.23657458     1.05300
O78         O  0.21708347  0.41001914  0.13453204    -1.11900
O79         O  0.13820477  0.37036891  0.13782831    -0.74300
O80         O  0.18216608  0.37730781  0.20846523    -0.77800
O81         O  0.30628814  0.43953294  0.15837449    -0.78500
C82         C  0.14399875  0.36980499  0.18388623     0.96800
O83         O  0.23966406  0.34907191  0.13847824    -0.76500
O84         O  0.12503351  0.42791584  0.11020197    -0.81600
C85         C  0.21983063  0.43728659  0.02657676     0.99400
C86         C  0.13088629  0.45341429  0.09909175     1.05300
O87         O  0.25175970  0.44258488  0.06132877    -0.77300
C88         C  0.22566838  0.34537200  0.09311997     1.03600
Fe89       Fe  0.75287460  0.88573685  0.17908652     1.65800
Fe90       Fe  0.68052338  0.89675255  0.07709667     1.73200
Fe91       Fe  0.74903653  0.94940811  0.12502579     1.54400
O92         O  0.73114074  0.95699551  0.19176117    -0.81000
O93         O  0.70263645  0.92254258  0.02354797    -0.79300
O94         O  0.76266740  0.91879311  0.23034676    -0.83500
O95         O  0.81917298  0.89172799  0.16380220    -0.78400
O96         O  0.68309171  0.96478278  0.09512448    -0.80200
O97         O  0.72338433  0.86528019  0.05966620    -0.82900
C98         C  0.83963585  0.91566396  0.16622513     0.97900
C99         C  0.74781124  0.94431358  0.23019769     1.05300
O100        O  0.72813149  0.91057576  0.12676455    -1.11900
O101        O  0.64974165  0.87035016  0.12421736    -0.74300
O102        O  0.68738613  0.88037128  0.19710904    -0.77800
O103        O  0.81743563  0.93883574  0.15575049    -0.78500
C104        C  0.65087148  0.87264290  0.16990478     0.96800
O105        O  0.74630468  0.84923074  0.13425676    -0.76500
O106        O  0.63637728  0.92736331  0.09336003    -0.81600
C107        C  0.73763294  0.93850450  0.02073577     0.99400
C108        C  0.64254205  0.95378395  0.09008618     1.05300
O109        O  0.76703697  0.94390148  0.05754580    -0.77300
C110        C  0.73914947  0.84566626  0.08832595     1.03600
Fe111      Fe  0.25816824  0.88261328  0.31628829     1.65800
Fe112      Fe  0.33356432  0.89384420  0.41635877     1.73200
Fe113      Fe  0.26486142  0.94701097  0.36975547     1.54400
O114        O  0.28017102  0.95401541  0.30162656    -0.81000
O115        O  0.31420225  0.92057133  0.47079685    -0.79300
O116        O  0.24952353  0.91530014  0.26369022    -0.83500
O117        O  0.19269984  0.88997174  0.33267045    -0.78400
O118        O  0.33182484  0.96180875  0.39681650    -0.80200
O119        O  0.29116492  0.86277412  0.43635010    -0.82900
C120        C  0.17277626  0.91405321  0.33124599     0.97900
C121        C  0.26449140  0.94082166  0.26326677     1.05300
O122        O  0.28484249  0.90776726  0.36774847    -1.11900
O123        O  0.36223909  0.86661852  0.36845122    -0.74300
O124        O  0.32244044  0.87514189  0.29632872    -0.77800
O125        O  0.19546091  0.93703260  0.34170846    -0.78500
C126        C  0.35937673  0.86714074  0.32237939     0.96800
O127        O  0.26331402  0.84661674  0.36275874    -0.76500
O128        O  0.37747962  0.92385364  0.39790045    -0.81600
C129        C  0.28055818  0.93749708  0.47486918     0.99400
C130        C  0.37210723  0.95036393  0.40112862     1.05300
O131        O  0.24974149  0.94275133  0.43902037    -0.77300
C132        C  0.27201633  0.84347760  0.40880887     1.03600
Fe133      Fe  0.26690546  0.12338048  0.81990493     1.65800
Fe134      Fe  0.33147789  0.11020706  0.92731244     1.73200
Fe135      Fe  0.26089817  0.05992487  0.87438768     1.54400
O136        O  0.19631303  0.07123147  0.83630883    -0.81000
O137        O  0.37288876  0.07730295  0.91482868    -0.79300
O138        O  0.19791443  0.11791672  0.82551366    -0.83500
O139        O  0.26520026  0.08958736  0.76847318    -0.78400
O140        O  0.23579953  0.06793512  0.93794562    -0.80200
O141        O  0.37053287  0.13442494  0.88459770    -0.82900
C142        C  0.27765606  0.06335553  0.77124607     0.99500
C143        C  0.17605940  0.09458676  0.82356879     1.05300
O144        O  0.28585773  0.09816330  0.87389913    -1.11900
O145        O  0.29220704  0.14415260  0.94080525    -0.74300
O146        O  0.26729792  0.15969032  0.86607646    -0.77800
O147        O  0.28566857  0.05057882  0.81152430    -0.78500
C148        C  0.27472443  0.16342020  0.91218467     0.96800
O149        O  0.33411505  0.13025490  0.80938810    -0.76500
O150        O  0.30045319  0.08613279  0.97827652    -0.81600
C151        C  0.36279688  0.05198731  0.92329985     0.99400
C152        C  0.26291025  0.07179790  0.97713961     1.05300
O153        O  0.32159783  0.04246574  0.91315960    -0.77300
C154        C  0.36979918  0.13642612  0.83897245     1.03600
Fe155      Fe  0.74904028  0.11903488  0.67788465     1.65800
Fe156      Fe  0.68187321  0.10614323  0.57137097     1.73200
Fe157      Fe  0.75568491  0.05642663  0.62086352     1.54400
O158        O  0.81997804  0.06768538  0.65909179    -0.81000
O159        O  0.64125897  0.07198510  0.58095713    -0.79300
O160        O  0.81750285  0.11422831  0.66930820    -0.83500
O161        O  0.75262495  0.08510375  0.72734885    -0.78400
O162        O  0.77977695  0.06664306  0.55785107    -0.80200
O163        O  0.64276818  0.12843306  0.61684351    -0.82900
C164        C  0.74213145  0.05870483  0.72425855     0.97900
C165        C  0.83991533  0.09107613  0.67152699     1.05300
O166        O  0.72868874  0.09404170  0.62372271    -1.11900
O167        O  0.71958635  0.14107749  0.55934933    -0.74300
O168        O  0.74722594  0.15542901  0.63421242    -0.77800
O169        O  0.73323491  0.04560929  0.68421443    -0.78500
C170        C  0.73898219  0.15949049  0.58856325     0.96800
O171        O  0.68258082  0.12578056  0.69097964    -0.76500
O172        O  0.71405377  0.08421343  0.51880153    -0.81600
C173        C  0.65303345  0.04668187  0.57402608     0.99400
C174        C  0.75292686  0.07141408  0.51888233     1.05300
O175        O  0.69523590  0.03849956  0.58208034    -0.77300
C176        C  0.64565309  0.13112427  0.66264975     1.03600
C177        C  0.57064224  0.15718237  0.75431859    -0.13700
C178        C  0.52872201  0.14321884  0.73835578     0.16700
C179        C  0.52389860  0.12796417  0.69435064     0.03000
C180        C  0.56125542  0.12639180  0.66758381    -0.12200
C181        C  0.60406857  0.13911545  0.68481549    -0.03300
C182        C  0.60820729  0.15526666  0.72798894     0.02200
C183        C  0.49003861  0.14467690  0.76777182     0.09000
N184        N  0.48255864  0.11210216  0.67853840     0.65400
H185        H  0.55789307  0.11335130  0.63523101     0.18300
N186        N  0.65044085  0.16981540  0.74547657     0.75900
H187        H  0.57428149  0.16942304  0.78756407     0.09800
C188        C  0.49427366  0.13330338  0.81501513     0.03500
C189        C  0.45558459  0.13352767  0.84017738    -0.05200
C190        C  0.41250505  0.14435910  0.81860697    -0.23600
C191        C  0.40955709  0.15770110  0.77286578     0.12800
C192        C  0.44812156  0.15743099  0.74780242    -0.12700
N193        N  0.53640746  0.11967973  0.83644801     0.64400
H194        H  0.45818608  0.12299420  0.87494972     0.12300
N195        N  0.36759627  0.17151973  0.75147177     0.61100
H196        H  0.44537801  0.16711539  0.71231090     0.08500
O197        O  0.67394525  0.16255954  0.78507731    -0.40400
O198        O  0.66194349  0.19157957  0.72366618    -0.39600
O199        O  0.45827272  0.11778759  0.63858393    -0.39600
O200        O  0.47193319  0.09119321  0.70301393    -0.37300
O201        O  0.34693577  0.18856603  0.77624204    -0.38200
O202        O  0.35347237  0.16879407  0.70680539    -0.34300
O203        O  0.55249765  0.12451709  0.88010269    -0.35700
O204        O  0.55529340  0.10089743  0.81329536    -0.40000
C205        C  0.05754866  0.11491897  0.75611325    -0.13700
C206        C  0.02953457  0.09280949  0.76907275     0.16700
C207        C  0.04959414  0.07137394  0.80065769     0.03000
C208        C  0.09742510  0.07223463  0.81779089    -0.12200
C209        C  0.12559362  0.09442867  0.80482294    -0.03300
C210        C  0.10506126  0.11592309  0.77337767     0.02200
C211        C  0.98027906  0.09171030  0.74614566     0.09000
N212        N  0.02170990  0.04908188  0.81648523     0.65400
H213        H  0.11243881  0.05576536  0.84222451     0.18300
N214        N  0.13231124  0.13796961  0.75609004     0.75900
H215        H  0.04267461  0.13104393  0.73085841     0.09800
C216        C  0.95040420  0.11511237  0.74871171     0.03500
C217        C  0.90600556  0.11486943  0.72181088    -0.05200
C218        C  0.88977509  0.09139937  0.69298703    -0.23600
C219        C  0.91997771  0.06792948  0.69020540     0.12800
C220        C  0.96468240  0.06833333  0.71704435    -0.12700
N221        N  0.96415035  0.13888832  0.77968701     0.64400
H222        H  0.88327456  0.13279907  0.72540249     0.12300
N223        N  0.90674302  0.04408257  0.65920118     0.61100
H224        H  0.98812594  0.05071074  0.71376660     0.08500
O225        O  0.15999273  0.13206438  0.72640977    -0.40400
O226        O  0.12356355  0.16363242  0.76445912    -0.39600
O227        O  0.03614234  0.02374884  0.81786681    -0.39600
O228        O  0.98445305  0.05494518  0.83291840    -0.37300
O229        O  0.89198458  0.04800546  0.61494818    -0.38200
O230        O  0.91641098  0.01917041  0.67404319    -0.34300
O231        O  0.95544023  0.16388957  0.76479662    -0.35700
O232        O  0.98137344  0.13491599  0.82327733    -0.40000
C233        C  0.49805220  0.96809675  0.44013417    -0.13700
C234        C  0.49405922  0.99227140  0.46860931     0.16700
C235        C  0.45022795  0.00562753  0.46753972     0.03000
C236        C  0.41070672  0.99268374  0.44193827    -0.12200
C237        C  0.41439218  0.96744133  0.41584223    -0.03300
C238        C  0.45905594  0.95601205  0.41281022     0.02200
C239        C  0.53648396  0.00303999  0.49871522     0.09000
N240        N  0.44525922  0.03203049  0.49233413     0.65400
H241        H  0.37679527  0.00185394  0.44385941     0.18300
N242        N  0.46530594  0.93177012  0.38307858     0.75900
H243        H  0.53179622  0.95836218  0.43948074     0.09800
C244        C  0.53905228  0.00758619  0.54926823     0.03500
C245        C  0.57866763  0.02083743  0.57436889    -0.05200
C246        C  0.61666008  0.02763872  0.55066999    -0.23600
C247        C  0.61493423  0.02123454  0.50122291     0.12800
C248        C  0.57491003  0.00944720  0.47558628    -0.12700
N249        N  0.50216992  0.99883789  0.57534155     0.64400
H250        H  0.57992335  0.02594163  0.61242906     0.12300
N251        N  0.65274099  0.02807601  0.47587147     0.61100
H252        H  0.57347562  0.00583142  0.43699803     0.08500
O253        O  0.49004009  0.91111559  0.40022898    -0.40400
O254        O  0.44888545  0.93185518  0.33870776    -0.39600
O255        O  0.47479928  0.05157641  0.49125728    -0.39600
O256        O  0.40899629  0.03698571  0.51120510    -0.37300
O257        O  0.68777596  0.01195393  0.48020621    -0.38200
O258        O  0.64676132  0.04579657  0.44169121    -0.34300
O259        O  0.48191881  0.97538340  0.56575185    -0.35700
O260        O  0.49308172  0.01300491  0.61135109    -0.40000
C261        C  0.31495933  0.97108556  0.60023233    -0.13700
C262        C  0.27749556  0.98965378  0.60285296     0.16700
C263        C  0.24019927  0.98975248  0.56480139     0.03000
C264        C  0.24115375  0.97188050  0.52461722    -0.12200
C265        C  0.27900103  0.95352939  0.52110012    -0.03300
C266        C  0.31636087  0.95335446  0.55982895     0.02200
C267        C  0.27788164  0.00883289  0.64552664     0.09000
N268        N  0.20069866  0.00764703  0.56687147     0.65400
H269        H  0.21207190  0.97265537  0.49576526     0.18300
N270        N  0.35709126  0.93649406  0.55789883     0.75900
H271        H  0.34402029  0.97097993  0.62916956     0.09800
C272        C  0.27813172  0.99755956  0.69214964     0.03500
C273        C  0.27963277  0.01581221  0.73198674    -0.05200
C274        C  0.28061655  0.04565899  0.72697372    -0.23600
C275        C  0.28199600  0.05701466  0.68019119     0.12800
C276        C  0.27985933  0.03850319  0.63997108    -0.12700
N277        N  0.27503854  0.96754972  0.69940885     0.64400
H278        H  0.27835226  0.00631110  0.76708398     0.12300
N279        N  0.28780615  0.08688956  0.67307620     0.61100
H280        H  0.28118860  0.04723640  0.60431662     0.08500
O281        O  0.36583781  0.91587783  0.58657812    -0.40400
O282        O  0.38794817  0.94505547  0.53369441    -0.39600
O283        O  0.19144843  0.02731985  0.53637976    -0.39600
O284        O  0.17350675  0.00277445  0.59742500    -0.37300
O285        O  0.32072586  0.09998861  0.69808289    -0.38200
O286        O  0.26514537  0.09911600  0.63699009    -0.34300
O287        O  0.30510569  0.95506154  0.72912638    -0.35700
O288        O  0.24015857  0.95393941  0.67928719    -0.40000
C289        C  0.27370236  0.04276149  0.10550405    -0.13700
C290        C  0.25619525  0.01504071  0.09659305     0.16700
C291        C  0.23517885  0.00802413  0.04925869     0.03000
C292        C  0.23339253  0.02826312  0.01223227    -0.12200
C293        C  0.25426064  0.05513737  0.02029159    -0.03300
C294        C  0.27359496  0.06257844  0.06784837     0.02200
C295        C  0.25977777  0.99393157  0.13707526     0.09000
N296        N  0.21870526  0.97984529  0.03714620     0.65400
H297        H  0.21922121  0.02185388  0.97585459     0.18300
N298        N  0.29334218  0.09008056  0.07844025     0.75900
H299        H  0.28822483  0.04895130  0.14187110     0.09800
C300        C  0.30183473  0.98986627  0.16875489     0.03500
C301        C  0.30259249  0.97187389  0.20893763    -0.05200
C302        C  0.26296034  0.95670607  0.21735334    -0.23600
C303        C  0.22156364  0.95975274  0.18479945     0.12800
C304        C  0.22014883  0.97848428  0.14547173    -0.12700
N305        N  0.34417500  0.00350351  0.16039771     0.64400
H306        H  0.33456831  0.96948533  0.23369315     0.12300
N307        N  0.17978255  0.94575326  0.19328569     0.61100
H308        H  0.18740213  0.98174033  0.12240890     0.08500
O309        O  0.33542411  0.09243272  0.09677719    -0.40400
O310        O  0.26781199  0.11189210  0.07309682    -0.39600
O311        O  0.17995116  0.97626208  0.01112375    -0.39600
O312        O  0.24508105  0.95873993  0.04752679    -0.37300
O313        O  0.15997657  0.92856648  0.16229502    -0.38200
O314        O  0.15935993  0.95345981  0.22821839    -0.34300
O315        O  0.37114712  0.01397702  0.19536975    -0.35700
O316        O  0.35666716  0.00298157  0.11882989    -0.40000
C317        C  0.44561664  0.99284092  0.97059328    -0.13700
C318        C  0.47210203  0.00717264  0.00927875     0.16700
C319        C  0.46031315  0.03498657  0.02100555     0.03000
C320        C  0.42445158  0.04885572  0.99200610    -0.12200
C321        C  0.39917652  0.03522271  0.95192571    -0.03300
C322        C  0.40891370  0.00673346  0.94170092     0.02200
C323        C  0.51565257  0.99465743  0.03325792     0.09000
N324        N  0.48478750  0.04935554  0.06217806     0.65400
H325        H  0.41591151  0.07045080  0.00119155     0.18300
N326        N  0.38422414  0.99248127  0.90054586     0.75900
H327        H  0.45511156  0.97145832  0.96131570     0.09800
C328        C  0.51549518  0.97163543  0.06491967     0.03500
C329        C  0.55764923  0.96017505  0.08650775    -0.05200
C330        C  0.60039970  0.97109879  0.07635464    -0.23600
C331        C  0.60036389  0.99499161  0.04587321     0.12800
C332        C  0.55798702  0.00651481  0.02460237    -0.12700
N333        N  0.47278273  0.95944336  0.07471836     0.64400
H334        H  0.55688572  0.94184978  0.10984583     0.12300
N335        N  0.64264368  0.00652957  0.03344328     0.61100
H336        H  0.55803800  0.02446679  0.00033862     0.08500
O337        O  0.38407588  0.00257868  0.85863420    -0.40400
O338        O  0.36552167  0.96870253  0.90557678    -0.39600
O339        O  0.50233396  0.07350805  0.05737567    -0.39600
O340        O  0.48553031  0.03898243  0.10396927    -0.37300
O341        O  0.65160450  0.00431382  0.99060934    -0.38200
O342        O  0.66682368  0.02288076  0.06274200    -0.34300
O343        O  0.45677660  0.93767342  0.05176420    -0.35700
O344        O  0.45351259  0.96869893  0.10946769    -0.40000
C345        C  0.77680649  0.98964629  0.92895848    -0.13700
C346        C  0.73814370  0.98933244  0.89299944     0.16700
C347        C  0.70103909  0.97079441  0.89708566     0.03000
C348        C  0.70268353  0.95327958  0.93779734    -0.12200
C349        C  0.74119022  0.95365112  0.97464330    -0.03300
C350        C  0.77893114  0.97195612  0.96942523     0.02200
C351        C  0.73833272  0.00764746  0.85033972     0.09000
N352        N  0.66145811  0.96966077  0.86027564     0.65400
H353        H  0.67309484  0.93977929  0.94093214     0.18300
N354        N  0.81965224  0.97300175  0.00475056     0.75900
H355        H  0.80573448  0.00363023  0.92535643     0.09800
C356        C  0.71519383  0.03405208  0.84617308     0.03500
C357        C  0.71737056  0.05102453  0.80527816    -0.05200
C358        C  0.74239653  0.04183280  0.76859602    -0.23600
C359        C  0.76583277  0.01543820  0.77323231     0.12800
C360        C  0.76330828  0.99855351  0.81382712    -0.12700
N361        N  0.68976315  0.04386529  0.88329675     0.64400
H362        H  0.69909684  0.07116484  0.80186539     0.12300
N363        N  0.79399399  0.00609949  0.73797549     0.61100
H364        H  0.78165078  0.97843013  0.81738286     0.08500
O365        O  0.83120462  0.99598327  0.02652631    -0.40400
O366        O  0.84730551  0.95216371  0.00928461    -0.39600
O367        O  0.66602570  0.96121950  0.81822151    -0.39600
O368        O  0.62132675  0.97448635  0.87088375    -0.37300
O369        O  0.78775239  0.98179141  0.71903789    -0.38200
O370        O  0.82899191  0.02046920  0.73072569    -0.34300
O371        O  0.71099893  0.05557626  0.92071012    -0.35700
O372        O  0.64589455  0.04421577  0.87594295    -0.40000
C373        C  0.74847100  0.04762235  0.38788133    -0.13700
C374        C  0.76461100  0.01954740  0.39516033     0.16700
C375        C  0.78514278  0.01127160  0.44191279     0.03000
C376        C  0.78588720  0.03035771  0.48048000    -0.12200
C377        C  0.76391907  0.05706288  0.47441530    -0.03300
C378        C  0.74713856  0.06629432  0.42700962     0.02200
C379        C  0.75953398  0.99919862  0.35384275     0.09000
N380        N  0.80153445  0.98283767  0.45190927     0.65400
H381        H  0.79923098  0.02283290  0.51644442     0.18300
N382        N  0.72978144  0.09451447  0.41751869     0.75900
H383        H  0.73514087  0.05477210  0.35170087     0.09800
C384        C  0.71647094  0.99559836  0.32385633     0.03500
C385        C  0.71315022  0.97689968  0.28455702    -0.05200
C386        C  0.75150806  0.96077332  0.27533437    -0.23600
C387        C  0.79428773  0.96386382  0.30551442     0.12800
C388        C  0.79820030  0.98332500  0.34390470    -0.12700
N389        N  0.67548910  0.01018888  0.33348329     0.64400
H390        H  0.68023922  0.97481550  0.26117022     0.12300
N391        N  0.83482959  0.94907763  0.29529145     0.61100
H392        H  0.83177773  0.98633109  0.36563521     0.08500
O393        O  0.69009976  0.10121854  0.42743756    -0.40400
O394        O  0.74859129  0.11007002  0.38901429    -0.39600
O395        O  0.84050645  0.97869879  0.47722311    -0.39600
O396        O  0.77480430  0.96201177  0.44082409    -0.37300
O397        O  0.86266408  0.96112449  0.27099118    -0.38200
O398        O  0.84614738  0.92583395  0.31614704    -0.34300
O399        O  0.65280908  0.02526069  0.30097770    -0.35700
O400        O  0.65770550  0.00406113  0.37086730    -0.40000
C401        C  0.44243292  0.85791774  0.22811370    -0.13700
C402        C  0.48445477  0.85210749  0.25771134     0.16700
C403        C  0.48416381  0.84829071  0.30774090     0.03000
C404        C  0.44278648  0.85192230  0.32775336    -0.12200
C405        C  0.40084706  0.85926759  0.29866755    -0.03300
C406        C  0.40092080  0.86151462  0.24786369     0.02200
C407        C  0.52888490  0.85490509  0.23716748     0.09000
N408        N  0.52601548  0.84119135  0.33876348     0.65400
H409        H  0.44394902  0.84973405  0.36650553     0.18300
N410        N  0.35991498  0.86909368  0.21587441     0.75900
H411        H  0.44228337  0.86125831  0.18970386     0.09800
C412        C  0.53924953  0.83810282  0.19799590     0.03500
C413        C  0.57869421  0.84437338  0.17574297    -0.05200
C414        C  0.60845684  0.86688006  0.19242004    -0.23600
C415        C  0.59756648  0.88387112  0.23124336     0.12800
C416        C  0.55848892  0.87746411  0.25347126    -0.12700
N417        N  0.51078279  0.81424588  0.18137940     0.64400
H418        H  0.58679335  0.83118184  0.14619040     0.12300
N419        N  0.62378881  0.90895972  0.24615912     0.61100
H420        H  0.54968631  0.89120458  0.28203889     0.08500
O421        O  0.33497622  0.84989524  0.19393538    -0.40400
O422        O  0.35285753  0.89471102  0.20370063    -0.39600
O423        O  0.54359178  0.85853247  0.37070180    -0.39600
O424        O  0.54353934  0.81675220  0.33661438    -0.37300
O425        O  0.63533574  0.91420593  0.29060758    -0.38200
O426        O  0.62988224  0.92770349  0.21536200    -0.34300
O427        O  0.49916832  0.81007087  0.13661155    -0.35700
O428        O  0.50099713  0.79582168  0.21116413    -0.40000
C429        C  0.96403734  0.94092488  0.20801085    -0.13700
C430        C  0.98119141  0.91850526  0.23854450     0.16700
C431        C  0.95193927  0.89517949  0.24437504     0.03000
C432        C  0.90729130  0.89416641  0.21784114    -0.12200
C433        C  0.88980074  0.91646884  0.18701432    -0.03300
C434        C  0.91875618  0.94015140  0.18240645     0.02200
C435        C  0.03081817  0.91834149  0.26087379     0.09000
N436        N  0.96655796  0.87275936  0.27807410     0.65400
H437        H  0.88516215  0.87634724  0.22351044     0.18300
N438        N  0.90323113  0.96323838  0.15105754     0.75900
H439        H  0.98636833  0.95877684  0.20304916     0.09800
C440        C  0.06080763  0.89610864  0.25087218     0.03500
C441        C  0.10560187  0.89445234  0.27685671    -0.05200
C442        C  0.12249298  0.91515451  0.31130096    -0.23600
C443        C  0.09287691  0.93783258  0.32027033     0.12800
C444        C  0.04741925  0.93922935  0.29501122    -0.12700
N445        N  0.04680011  0.87556402  0.21344442     0.64400
H446        H  0.12837120  0.87756390  0.26793949     0.12300
N447        N  0.10783649  0.95900972  0.35590183     0.61100
H448        H  0.02445640  0.95620913  0.30314753     0.08500
O449        O  0.90168666  0.96034940  0.10589424    -0.40400
O450        O  0.89764703  0.98753051  0.16858822    -0.39600
O451        O  0.98811211  0.87849689  0.31945713    -0.39600
O452        O  0.95369597  0.84751883  0.26859827    -0.37300
O453        O  0.10629136  0.98494458  0.34443983    -0.38200
O454        O  0.11823349  0.95203637  0.39975539    -0.34300
O455        O  0.02517056  0.88337527  0.17318510    -0.35700
O456        O  0.06025960  0.85009691  0.21859439    -0.40000
C457        C  0.20638725  0.28307589  0.00591719    -0.13700
C458        C  0.24941657  0.26929844  0.01343216     0.16700
C459        C  0.28469704  0.27982633  0.04922970     0.03000
C460        C  0.27590912  0.30379856  0.07704251    -0.12200
C461        C  0.23295879  0.31795887  0.06865833    -0.03300
C462        C  0.19788439  0.30709008  0.03292872     0.02200
C463        C  0.25471079  0.24233219  0.98685509     0.09000
N464        N  0.33000588  0.26710549  0.05627520     0.65400
H465        H  0.30340383  0.31219508  0.10350755     0.18300
N466        N  0.15261576  0.31964620  0.02474664     0.75900
H467        H  0.17876348  0.27474484  0.97949626     0.09800
C468        C  0.25616111  0.21608417  0.01104178     0.03500
C469        C  0.26123366  0.19093157  0.98540793    -0.05200
C470        C  0.26446453  0.19098463  0.93538586    -0.23600
C471        C  0.26195564  0.21736262  0.91104326     0.12800
C472        C  0.25687898  0.24269545  0.93681965    -0.12700
N473        N  0.25154010  0.21457337  0.06147746     0.64400
H474        H  0.26237273  0.17106430  0.00506842     0.12300
N475        N  0.26715202  0.21902013  0.86099562     0.61100
H476        H  0.25556781  0.26281540  0.91789614     0.08500
O477        O  0.12109814  0.31015487  0.04712065    -0.40400
O478        O  0.14163623  0.33530225  0.98827140    -0.39600
O479        O  0.35186751  0.26358648  0.02064614    -0.39600
O480        O  0.35045581  0.26255628  0.09853868    -0.37300
O481        O  0.23162027  0.22147665  0.82960846    -0.38200
O482        O  0.30697287  0.22296796  0.84906299    -0.34300
O483        O  0.21618747  0.22502792  0.07663371    -0.35700
O484        O  0.27999752  0.20007789  0.08987756    -0.40000
C485        C  0.71921003  0.27085178  0.44782699    -0.13700
C486        C  0.74944917  0.26611245  0.49105830     0.16700
C487        C  0.78197230  0.28709783  0.50856759     0.03000
C488        C  0.78249543  0.31271264  0.48362754    -0.12200
C489        C  0.75233394  0.31779270  0.44034198    -0.03300
C490        C  0.72042848  0.29650542  0.42234288     0.02200
C491        C  0.74716395  0.23910458  0.51756099     0.09000
N492        N  0.81588161  0.28230239  0.55045727     0.65400
H493        H  0.80836349  0.32836570  0.49736640     0.18300
N494        N  0.68814368  0.30095671  0.37945915     0.75900
H495        H  0.69417649  0.25469491  0.43423079     0.09800
C496        C  0.73603045  0.23826360  0.56535552     0.03500
C497        C  0.73783165  0.21221901  0.59004602    -0.05200
C498        C  0.74954955  0.18706134  0.56755382    -0.23600
C499        C  0.76274302  0.18829363  0.52067231     0.12800
C500        C  0.76074216  0.21419264  0.49600132    -0.12700
N501        N  0.72105061  0.26330694  0.58840088     0.64400
H502        H  0.72685454  0.21130912  0.62555750     0.12300
N503        N  0.77856772  0.16344015  0.49786760     0.61100
H504        H  0.77103606  0.21507939  0.46017221     0.08500
O505        O  0.65120631  0.31474822  0.38174639    -0.40400
O506        O  0.69331301  0.28789274  0.34102604    -0.39600
O507        O  0.83983036  0.25979881  0.55394251    -0.39600
O508        O  0.82596668  0.30193783  0.58099864    -0.37300
O509        O  0.76669896  0.15931016  0.45313406    -0.38200
O510        O  0.80788107  0.14700720  0.52130844    -0.34300
O511        O  0.69256518  0.28027173  0.56509163    -0.35700
O512        O  0.73271345  0.26711579  0.63327080    -0.40000
C513        C  0.45849620  0.40026956  0.20193806    -0.13700
C514        C  0.47098038  0.42016236  0.23938918     0.16700
C515        C  0.43770005  0.44043035  0.24956942     0.03000
C516        C  0.39292728  0.44029024  0.22283266    -0.12200
C517        C  0.37994845  0.41954334  0.18711323    -0.03300
C518        C  0.41322337  0.39961803  0.17634284     0.02200
C519        C  0.51910174  0.41971635  0.26656858     0.09000
N520        N  0.44749075  0.46016592  0.28893139     0.65400
H521        H  0.36771046  0.45471419  0.23242650     0.18300
N522        N  0.40179579  0.37886164  0.13907255     0.75900
H523        H  0.48364850  0.38535197  0.19269586     0.09800
C524        C  0.53955033  0.39431545  0.28636971     0.03500
C525        C  0.58605860  0.39428370  0.30829570    -0.05200
C526        C  0.61303979  0.41923384  0.31220896    -0.23600
C527        C  0.59185110  0.44485293  0.29403973     0.12800
C528        C  0.54565249  0.44478416  0.27100159    -0.12700
N529        N  0.51354984  0.36837252  0.28487678     0.64400
H530        H  0.60108491  0.37445060  0.32240536     0.12300
N531        N  0.61699970  0.47100400  0.29706814     0.61100
H532        H  0.53078940  0.46434298  0.25562175     0.08500
O533        O  0.40546186  0.35274613  0.14894873    -0.40400
O534        O  0.39131446  0.38663190  0.09563222    -0.39600
O535        O  0.43550573  0.48585376  0.28326387    -0.39600
O536        O  0.46335571  0.45136481  0.33073456    -0.37300
O537        O  0.63716896  0.47885469  0.26212811    -0.38200
O538        O  0.61346260  0.48802499  0.33137496    -0.34300
O539        O  0.53110616  0.34550377  0.27207968    -0.35700
O540        O  0.47439130  0.36785539  0.29960871    -0.40000
C541        C  0.97160626  0.34445140  0.31536379    -0.13700
C542        C  0.97515557  0.35683974  0.27023525     0.16700
C543        C  0.93509916  0.36866275  0.24316628     0.03000
C544        C  0.89299188  0.36883984  0.26220133    -0.12200
C545        C  0.88974786  0.35804332  0.30865118    -0.03300
C546        C  0.92927503  0.34464457  0.33461162     0.02200
C547        C  0.02067168  0.35744660  0.25141521     0.09000
N548        N  0.93736748  0.38239300  0.19775089     0.65400
H549        H  0.86345162  0.37940885  0.24167481     0.18300
N550        N  0.92684135  0.33077451  0.37990455     0.75900
H551        H  0.00191337  0.33450246  0.33560613     0.09800
C552        C  0.05955968  0.37179499  0.27629361     0.03500
C553        C  0.10083054  0.37359445  0.25536497    -0.05200
C554        C  0.10394495  0.36187320  0.20941638    -0.23600
C555        C  0.06575005  0.34611816  0.18613676     0.12800
C556        C  0.02464286  0.34425882  0.20704086    -0.12700
N557        N  0.05674034  0.38621334  0.32117168     0.64400
H558        H  0.12946628  0.38595991  0.27370684     0.12300
N559        N  0.06865095  0.33118949  0.14195235     0.61100
H560        H  0.99544096  0.33245988  0.18843776     0.08500
O561        O  0.95881458  0.33423888  0.41501250    -0.40400
O562        O  0.89565478  0.31250098  0.38310735    -0.39600
O563        O  0.90871481  0.37593138  0.16107635    -0.39600
O564        O  0.96477399  0.40296870  0.19542918    -0.37300
O565        O  0.09869661  0.31185895  0.14115362    -0.38200
O566        O  0.03745241  0.33440615  0.10603819    -0.34300
O567        O  0.08921411  0.38373351  0.35605043    -0.35700
O568        O  0.02382717  0.40330779  0.32475371    -0.40000
C569        C  0.75970084  0.71454017  0.01774451    -0.13700
C570        C  0.73776560  0.73718260  0.99130890     0.16700
C571        C  0.72228134  0.73346260  0.94136341     0.03000
C572        C  0.73040824  0.70753571  0.91871293    -0.12200
C573        C  0.75306687  0.68484485  0.94511242    -0.03300
C574        C  0.76715685  0.68862908  0.99564634     0.02200
C575        C  0.73623573  0.76518589  0.01594293     0.09000
N576        N  0.69787621  0.75568804  0.91337927     0.65400
H577        H  0.71881876  0.70518248  0.88032768     0.18300
N578        N  0.79077457  0.66684528  0.02521704     0.75900
H579        H  0.77255509  0.71724881  0.05582815     0.09800
C580        C  0.71909614  0.76795338  0.06080411     0.03500
C581        C  0.72441236  0.79381460  0.08620230    -0.05200
C582        C  0.74484344  0.81736944  0.06688248    -0.23600
C583        C  0.76188255  0.81458723  0.02210960     0.12800
C584        C  0.75759786  0.78862263  0.99725458    -0.12700
N585        N  0.69423572  0.74520106  0.07975633     0.64400
H586        H  0.70955172  0.79611979  0.11950540     0.12300
N587        N  0.78440206  0.83785348  0.00193786     0.61100
H588        H  0.77224071  0.78651468  0.96380288     0.08500
O589        O  0.76784046  0.65009724  0.04801037    -0.40400
O590        O  0.83456881  0.66721267  0.03450765    -0.39600
O591        O  0.70981124  0.76282681  0.87331027    -0.39600
O592        O  0.66220066  0.76675459  0.92690306    -0.37300
O593        O  0.81937846  0.84947932  0.02606849    -0.38200
O594        O  0.77155582  0.84544226  0.95876021    -0.34300
O595        O  0.70038033  0.73998317  0.12456711    -0.35700
O596        O  0.66277308  0.73214470  0.05255834    -0.40000
C597        C  0.77247823  0.54086846  0.63996456    -0.13700
C598        C  0.75647099  0.51271486  0.64062986     0.16700
C599        C  0.74071118  0.50223695  0.68248030     0.03000
C600        C  0.74228911  0.51948812  0.72332181    -0.12200
C601        C  0.75931761  0.54743794  0.72361845    -0.03300
C602        C  0.77443193  0.55832614  0.68133483     0.02200
C603        C  0.75832081  0.49369052  0.59863805     0.09000
N604        N  0.72255080  0.47408866  0.68375182     0.65400
H605        H  0.72975213  0.51093354  0.75515604     0.18300
N606        N  0.79459007  0.58606690  0.68084554     0.75900
H607        H  0.78527578  0.54884714  0.60790264     0.09800
C608        C  0.72598305  0.49625261  0.55655060     0.03500
C609        C  0.72685571  0.47695139  0.51845734    -0.05200
C610        C  0.76036892  0.45504632  0.52090002    -0.23600
C611        C  0.79255038  0.45237315  0.56383833     0.12800
C612        C  0.79110680  0.47162255  0.60209866    -0.12700
N613        N  0.69218665  0.51852552  0.55196303     0.64400
H614        H  0.70201087  0.47988571  0.48608315     0.12300
N615        N  0.82731946  0.43061065  0.56913645     0.61100
H616        H  0.81574009  0.46933168  0.63483528     0.08500
O617        O  0.78289777  0.60246041  0.64547601    -0.40400
O618        O  0.82830192  0.59277317  0.71245445    -0.39600
O619        O  0.74564630  0.45516732  0.70854034    -0.39600
O620        O  0.68125824  0.46906667  0.66500969    -0.37300
O621        O  0.86981130  0.43725831  0.57425569    -0.38200
O622        O  0.81586433  0.40517893  0.57534495    -0.34300
O623        O  0.70163244  0.54218331  0.53456865    -0.35700
O624        O  0.65163277  0.51378836  0.56128642    -0.40000
C625        C  0.72498779  0.50667130  0.05855922    -0.13700
C626        C  0.74462452  0.51625250  0.10452105     0.16700
C627        C  0.76528880  0.54359319  0.10882588     0.03000
C628        C  0.76857037  0.55963477  0.06692027    -0.12200
C629        C  0.74967034  0.54966803  0.02092142    -0.03300
C630        C  0.72658498  0.52312331  0.01722226     0.02200
C631        C  0.74800740  0.49601111  0.14606955     0.09000
N632        N  0.78283727  0.55538762  0.15531284     0.65400
H633        H  0.78564425  0.58010116  0.07030697     0.18300
N634        N  0.70768617  0.51138839  0.97133259     0.75900
H635        H  0.71016746  0.48559378  0.05421069     0.09800
C636        C  0.70999300  0.47891345  0.15520990     0.03500
C637        C  0.71652355  0.45837096  0.19206812    -0.05200
C638        C  0.75938509  0.45552079  0.22177014    -0.23600
C639        C  0.79720709  0.47235674  0.21245754     0.12800
C640        C  0.79147966  0.49192204  0.17441834    -0.12700
N641        N  0.66411319  0.48315255  0.12944481     0.64400
H642        H  0.68697491  0.44616986  0.20008917     0.12300
N643        N  0.84172634  0.46979852  0.24147857     0.61100
H644        H  0.82141799  0.50387563  0.16682596     0.08500
O645        O  0.66419836  0.50908597  0.96036040    -0.40400
O646        O  0.73426322  0.49950899  0.94522416    -0.39600
O647        O  0.81987417  0.56975038  0.16073167    -0.39600
O648        O  0.75946813  0.55344064  0.19007459    -0.37300
O649        O  0.86486474  0.44713267  0.24054751    -0.38200
O650        O  0.85939183  0.49085800  0.26535062    -0.34300
O651        O  0.63806826  0.46211004  0.11761721    -0.35700
O652        O  0.64775806  0.50793295  0.12295060    -0.40000
C653        C  0.03297247  0.50565386  0.06268054    -0.13700
C654        C  0.01047886  0.49185706  0.02111351     0.16700
C655        C  0.02866501  0.46644595  0.00515948     0.03000
C656        C  0.06840283  0.45479345  0.03136151    -0.12200
C657        C  0.09041130  0.46802130  0.07348201    -0.03300
C658        C  0.07307186  0.49378514  0.08914025     0.02200
C659        C  0.96941424  0.50469186  0.99265939     0.09000
N660        N  0.00672510  0.45213484  0.96268477     0.65400
H661        H  0.08200221  0.43504251  0.01897798     0.18300
N662        N  0.09488559  0.50747041  0.13220804     0.75900
H663        H  0.01917942  0.52543892  0.07458861     0.09800
C664        C  0.92554836  0.50373069  0.00854130     0.03500
C665        C  0.88722521  0.51598142  0.98008732    -0.05200
C666        C  0.89229507  0.52924971  0.93615844    -0.23600
C667        C  0.93603938  0.52960068  0.91989969     0.12800
C668        C  0.97424606  0.51719778  0.94812343    -0.12700
N669        N  0.91966896  0.49072282  0.05359705     0.64400
H670        H  0.85389047  0.51627094  0.99336130     0.12300
N671        N  0.94207372  0.54272646  0.87505223     0.61100
H672        H  0.00790884  0.51757273  0.93559230     0.08500
O673        O  0.09561276  0.49554538  0.17278898    -0.40400
O674        O  0.11390341  0.53139294  0.12971065    -0.39600
O675        O  0.02920574  0.44726444  0.92796919    -0.39600
O676        O  0.96605497  0.44247120  0.96129036    -0.37300
O677        O  0.93411009  0.52871033  0.83617987    -0.38200
O678        O  0.96141616  0.56669806  0.87503066    -0.34300
O679        O  0.90485063  0.50519793  0.08639572    -0.35700
O680        O  0.92473961  0.46422841  0.05879630    -0.40000
C681        C  0.25474575  0.73757295  0.56148163    -0.13700
C682        C  0.24198873  0.73860856  0.51078675     0.16700
C683        C  0.22598261  0.71337148  0.48648088     0.03000
C684        C  0.22327979  0.68820081  0.51274809    -0.12200
C685        C  0.23420859  0.68722912  0.56366384    -0.03300
C686        C  0.25043235  0.71244334  0.58794731     0.02200
C687        C  0.24723867  0.76567417  0.48349157     0.09000
N688        N  0.21036506  0.71305980  0.43532456     0.65400
H689        H  0.21051774  0.66940530  0.49280052     0.18300
N690        N  0.26185596  0.71316749  0.63942766     0.75900
H691        H  0.26812698  0.75644293  0.58081058     0.09800
C692        C  0.23099241  0.79214345  0.49874153     0.03500
C693        C  0.23921530  0.81710320  0.47360144    -0.05200
C694        C  0.26143368  0.81633709  0.43199741    -0.23600
C695        C  0.27672266  0.78997960  0.41606208     0.12800
C696        C  0.27011542  0.76512902  0.44209467    -0.12700
N697        N  0.20500988  0.79402144  0.53874809     0.64400
H698        H  0.22726754  0.83726009  0.48606029     0.12300
N699        N  0.30170390  0.78832290  0.37540867     0.61100
H700        H  0.28411470  0.74534120  0.43053144     0.08500
O701        O  0.23328535  0.72343669  0.66497438    -0.40400
O702        O  0.30244058  0.70683066  0.65884228    -0.39600
O703        O  0.22235684  0.69308907  0.40940974    -0.39600
O704        O  0.18104740  0.73114518  0.41674507    -0.37300
O705        O  0.34136970  0.79956551  0.37763029    -0.38200
O706        O  0.28653742  0.77301295  0.33948062    -0.34300
O707        O  0.21377393  0.81343800  0.56995894    -0.35700
O708        O  0.17022629  0.77817670  0.54027009    -0.40000
C709        C  0.26185818  0.48011185  0.92562749    -0.13700
C710        C  0.21995692  0.49250251  0.90408834     0.16700
C711        C  0.17794244  0.48402096  0.91993614     0.03000
C712        C  0.17865311  0.46369744  0.95670143    -0.12200
C713        C  0.22072055  0.45234478  0.97996233    -0.03300
C714        C  0.26283813  0.46029408  0.96351124     0.02200
C715        C  0.22008793  0.51246698  0.86252946     0.09000
N716        N  0.13456544  0.49711531  0.90111300     0.65400
H717        H  0.14629834  0.45848457  0.96971596     0.18300
N718        N  0.30662714  0.44824746  0.98433965     0.75900
H719        H  0.29397418  0.48561177  0.91238489     0.09800
C720        C  0.24956171  0.53650243  0.86471440     0.03500
C721        C  0.24987526  0.55370220  0.82349682    -0.05200
C722        C  0.22096170  0.54760545  0.78002332    -0.23600
C723        C  0.19085019  0.52385797  0.77838465     0.12800
C724        C  0.19133078  0.50645259  0.81902792    -0.12700
N725        N  0.27943896  0.54367201  0.90834632     0.64400
H726        H  0.27357787  0.57151310  0.82517868     0.12300
N727        N  0.15933964  0.51711247  0.73565063     0.61100
H728        H  0.16901702  0.48795623  0.81648587     0.08500
O729        O  0.34337179  0.46282005  0.98731755    -0.40400
O730        O  0.30946439  0.42228122  0.99564088    -0.39600
O731        O  0.09947196  0.48198661  0.88685575    -0.39600
O732        O  0.13025615  0.52378481  0.90236300    -0.37300
O733        O  0.12779649  0.53448912  0.71961305    -0.38200
O734        O  0.16017314  0.49279361  0.71663497    -0.34300
O735        O  0.32201220  0.54852677  0.90725881    -0.35700
O736        O  0.26281671  0.54695198  0.94745192    -0.40000
C737        C  0.27077963  0.50781933  0.31982801    -0.13700
C738        C  0.25760722  0.49802830  0.36321636     0.16700
C739        C  0.24232869  0.46953719  0.36607222     0.03000
C740        C  0.24016924  0.45174798  0.32515043    -0.12200
C741        C  0.25095302  0.46219835  0.28107349    -0.03300
C742        C  0.26737128  0.49037777  0.27896080     0.02200
C743        C  0.25936601  0.51831511  0.40435967     0.09000
N744        N  0.22643395  0.45884594  0.40902351     0.65400
H745        H  0.22722635  0.43026570  0.32689475     0.18300
N746        N  0.28110991  0.50162269  0.23552352     0.75900
H747        H  0.28323347  0.52938707  0.31746410     0.09800
C748        C  0.28656825  0.51307583  0.44942823     0.03500
C749        C  0.28306111  0.53148790  0.48835380    -0.05200
C750        C  0.25354868  0.55543780  0.48333928    -0.23600
C751        C  0.22981339  0.56207043  0.43687305     0.12800
C752        C  0.23247949  0.54321747  0.39822228    -0.12700
N753        N  0.31731228  0.48903905  0.45640635     0.64400
H754        H  0.30219832  0.52624741  0.52338564     0.12300
N755        N  0.20270393  0.58757537  0.42838544     0.61100
H756        H  0.21280327  0.54778326  0.36313720     0.08500
O757        O  0.32379977  0.50377448  0.23199617    -0.40400
O758        O  0.25187917  0.51513872  0.20640399    -0.39600
O759        O  0.19855323  0.47328446  0.43007346    -0.39600
O760        O  0.23503146  0.43350806  0.42210341    -0.37300
O761        O  0.16501517  0.58734227  0.39967220    -0.38200
O762        O  0.21908488  0.61102368  0.44484316    -0.34300
O763        O  0.34362349  0.48308635  0.42539314    -0.35700
O764        O  0.32125495  0.47521945  0.49550981    -0.40000
C765        C  0.53728793  0.61321509  0.79433126    -0.13700
C766        C  0.52048596  0.59063234  0.76409322     0.16700
C767        C  0.54984504  0.56759007  0.75764241     0.03000
C768        C  0.59552772  0.56732434  0.78161681    -0.12200
C769        C  0.61295855  0.59016661  0.81129622    -0.03300
C770        C  0.58318488  0.61321061  0.81793420     0.02200
C771        C  0.47124095  0.59056950  0.74203823     0.09000
N772        N  0.53369677  0.54447543  0.72648893     0.65400
H773        H  0.61802459  0.54970649  0.77532464     0.18300
N774        N  0.59866742  0.63635043  0.84943088     0.75900
H775        H  0.51440646  0.63073690  0.80009245     0.09800
C776        C  0.43617658  0.58206900  0.76912937     0.03500
C777        C  0.38952508  0.58355478  0.74822749    -0.05200
C778        C  0.37728902  0.59354502  0.70086314    -0.23600
C779        C  0.41220164  0.60230917  0.67393803     0.12800
C780        C  0.45903154  0.60050865  0.69455060    -0.12700
N781        N  0.44748592  0.57200364  0.81782512     0.64400
H782        H  0.36262703  0.57670402  0.76894637     0.12300
N783        N  0.40052348  0.61287424  0.62574657     0.61100
H784        H  0.48591342  0.60737630  0.67386777     0.08500
O785        O  0.60899786  0.63216115  0.89432839    -0.40400
O786        O  0.59831601  0.66133255  0.83307348    -0.39600
O787        O  0.53100589  0.54720943  0.68118982    -0.39600
O788        O  0.52627185  0.52057005  0.74424171    -0.37300
O789        O  0.38109212  0.63679610  0.61870669    -0.38200
O790        O  0.41289513  0.59937986  0.59054215    -0.34300
O791        O  0.42769135  0.58260247  0.85120409    -0.35700
O792        O  0.47468900  0.55116773  0.82699789    -0.40000
C793        C  0.97862045  0.65086153  0.81255384    -0.13700
C794        C  0.97107130  0.65470048  0.76210671     0.16700
C795        C  0.92502459  0.65655500  0.73834307     0.03000
C796        C  0.88790018  0.65200404  0.76443239    -0.12200
C797        C  0.89515979  0.64626914  0.81449749    -0.03300
C798        C  0.94128984  0.64735927  0.83917965     0.02200
C799        C  0.01094222  0.65221465  0.73400114     0.09000
N800        N  0.91551616  0.66227638  0.68740544     0.65400
H801        H  0.85296535  0.65235559  0.74482825     0.18300
N802        N  0.95112622  0.64440772  0.89075612     0.75900
H803        H  0.01387589  0.64965262  0.83123885     0.09800
C804        C  0.05229481  0.66806555  0.74560563     0.03500
C805        C  0.09125722  0.66158145  0.72273629    -0.05200
C806        C  0.08935263  0.64008285  0.68746989    -0.23600
C807        C  0.04766672  0.62478854  0.67521896     0.12800
C808        C  0.00910400  0.63100706  0.69831329    -0.12700
N809        N  0.05496923  0.69091707  0.77993994     0.64400
H810        H  0.12310280  0.67353514  0.73224090     0.12300
N811        N  0.04571843  0.60061648  0.64388582     0.61100
H812        H  0.97830504  0.61790470  0.69040645     0.08500
O813        O  0.98311000  0.62790780  0.90908781    -0.40400
O814        O  0.93434105  0.66208424  0.91771619    -0.39600
O815        O  0.88506989  0.64811692  0.66078419    -0.39600
O816        O  0.93576242  0.68250253  0.66934073    -0.37300
O817        O  0.06930700  0.57885196  0.65755676    -0.38200
O818        O  0.01440367  0.59894036  0.60775085    -0.34300
O819        O  0.09023935  0.69350565  0.81166380    -0.35700
O820        O  0.02379222  0.70982491  0.77624633    -0.40000
C821        C  0.06452641  0.50354900  0.49383582    -0.13700
C822        C  0.02584567  0.50020797  0.51792602     0.16700
C823        C  0.02888560  0.50715692  0.56731667     0.03000
C824        C  0.06971522  0.51941165  0.59111779    -0.12200
C825        C  0.10773624  0.52429015  0.56622060    -0.03300
C826        C  0.10569089  0.51530455  0.51763861     0.02200
C827        C  0.98363747  0.48761544  0.49133661     0.09000
N828        N  0.99063388  0.50224470  0.59339744     0.65400
H829        H  0.07106283  0.52610506  0.62818912     0.18300
N830        N  0.14435192  0.51898475  0.49147537     0.75900
H831        H  0.06251127  0.49712166  0.45644024     0.09800
C832        C  0.94742585  0.50449937  0.46751692     0.03500
C833        C  0.90776095  0.49144922  0.44250865    -0.05200
C834        C  0.90443275  0.46172795  0.43999270    -0.23600
C835        C  0.94107384  0.44497189  0.46477545     0.12800
C836        C  0.98022766  0.45812487  0.48969427    -0.12700
N837        N  0.95092699  0.53481069  0.46784743     0.64400
H838        H  0.88011000  0.50453125  0.42412306     0.12300
N839        N  0.93851238  0.41461237  0.46687329     0.61100
H840        H  0.00792793  0.44523580  0.50857540     0.08500
O841        O  0.13752691  0.52632015  0.44754968    -0.40400
O842        O  0.18407256  0.51020943  0.50951977    -0.39600
O843        O  0.99323944  0.48299366  0.62506581    -0.39600
O844        O  0.95489782  0.51778494  0.58611853    -0.37300
O845        O  0.91063450  0.40301390  0.49169938    -0.38200
O846        O  0.96879499  0.39963102  0.45034257    -0.34300
O847        O  0.98267196  0.54676840  0.44870993    -0.35700
O848        O  0.91990456  0.54971064  0.48322911    -0.40000
loop_ 
_geom_bond_atom_site_label_1 
_geom_bond_atom_site_label_2 
_geom_bond_distance 
_geom_bond_site_symmetry_2 
_ccdc_geom_bond_type 
Fe1          O17   2.051       .  S
Fe1           O7   2.129       .  S
Fe1          O14   2.126       .  S
Fe1           O6   2.056       .  S
Fe1          O12   1.953       .  S
Fe2           O5   2.036       .  S
Fe2           O9   2.087       .  S
Fe2          O13   2.041       .  S
Fe2          O18   2.106       .  S
Fe2          O12   1.941       .  S
Fe3          O21   2.090       .  S
Fe3           O8   2.045       .  S
Fe3          O15   2.029       .  S
Fe3           O4   2.076       .  S
Fe3          O12   1.950       .  S
O4           C11   1.268       .  A
O5           C19   1.260       .  A
O6           C11   1.264       .  A
O7           C10   1.285       .  A
O8           C20   1.269       .  A
O9           C22   1.273       .  A
C10          O15   1.268       .  A
C10         C722   1.488       .  S
C11         C778   1.467       .  S
O13          C16   1.268       .  A
O14          C16   1.283       .  A
C16         C685   1.505       .  S
O17          C22   1.265       .  A
O18          C20   1.279       .  A
C19          O21   1.269       .  A
C19         C825   1.466       .  S
C20         C750   1.490       .  S
C22         C806   1.481       .  S
Fe23         O39   2.044       .  S
Fe23         O29   2.123       .  S
Fe23         O36   2.118       .  S
Fe23         O28   2.052       .  S
Fe23         O34   1.937       .  S
Fe24         O27   2.030       .  S
Fe24         O31   2.093       .  S
Fe24         O35   2.030       .  S
Fe24         O40   2.116       .  S
Fe24         O34   1.933       .  S
Fe25         O43   2.094       .  S
Fe25         O30   2.037       .  S
Fe25         O37   2.027       .  S
Fe25         O26   2.084       .  S
Fe25         O34   1.939       .  S
O26          C33   1.271       .  A
O27          C41   1.259       .  A
O28          C33   1.266       .  A
O29          C32   1.283       .  A
O30          C42   1.266       .  A
O31          C44   1.273       .  A
C32          O37   1.268       .  A
C32         C601   1.480       .  S
C33         C769   1.481       .  S
O35          C38   1.266       .  A
O36          C38   1.282       .  A
C38         C573   1.496       .  S
O39          C44   1.266       .  A
O40          C42   1.280       .  A
C41          O43   1.271       .  A
C41         C666   1.461       .  S
C42         C629   1.485   1_556  S
C44         C797   1.496       .  S
Fe45         O61   2.129       .  S
Fe45         O51   2.044       .  S
Fe45         O58   2.048       .  S
Fe45         O50   2.116       .  S
Fe45         O56   1.927       .  S
Fe46         O49   2.113       .  S
Fe46         O53   2.018       .  S
Fe46         O57   2.097       .  S
Fe46         O62   2.015       .  S
Fe46         O56   1.914       .  S
Fe47         O65   2.042       .  S
Fe47         O52   2.122       .  S
Fe47         O59   2.112       .  S
Fe47         O48   2.039       .  S
Fe47         O56   1.928       .  S
O48          C55   1.267       .  A
O49          C63   1.279       .  A
O50          C55   1.281       .  A
O51          C54   1.270       .  A
O52          C64   1.277       .  A
O53          C66   1.264       .  A
C54          O59   1.280       .  A
C54         C526   1.494       .  S
C55         C638   1.476       .  S
O57          C60   1.274       .  A
O58          C60   1.267       .  A
C60         C545   1.492       .  S
O61          C66   1.283       .  A
O62          C64   1.255       .  A
C63          O65   1.269       .  A
C63         C610   1.493       .  S
C64         C834   1.479       .  S
C66         C489   1.484       .  S
Fe67         O83   2.134       .  S
Fe67         O73   2.065       .  S
Fe67         O80   2.071       .  S
Fe67         O72   2.122       .  S
Fe67         O78   1.936       .  S
Fe68         O71   2.111       .  S
Fe68         O75   2.027       .  S
Fe68         O79   2.089       .  S
Fe68         O84   2.023       .  S
Fe68         O78   1.931       .  S
Fe69         O87   2.048       .  S
Fe69         O74   2.103       .  S
Fe69         O81   2.090       .  S
Fe69         O70   2.030       .  S
Fe69         O78   1.942       .  S
O70          C77   1.267       .  A
O71          C85   1.279       .  A
O72          C77   1.282       .  A
O73          C76   1.271       .  A
O74          C86   1.273       .  A
O75          C88   1.266       .  A
C76          O81   1.274       .  A
C76         C517   1.481       .  S
C77         C741   1.479       .  S
O79          C82   1.272       .  A
O80          C82   1.269       .  A
C82         C554   1.495       .  S
O83          C88   1.285       .  A
O84          C86   1.258       .  A
C85          O87   1.269       .  A
C85         C713   1.486   1_554  S
C86         C657   1.459       .  S
C88         C461   1.487       .  S
Fe89        O105   2.116       .  S
Fe89         O95   2.050       .  S
Fe89        O102   2.050       .  S
Fe89         O94   2.104       .  S
Fe89        O100   1.930       .  S
Fe90         O93   2.097       .  S
Fe90         O97   2.035       .  S
Fe90        O101   2.101       .  S
Fe90        O106   2.020       .  S
Fe90        O100   1.928       .  S
Fe91        O109   2.039       .  S
Fe91         O96   2.106       .  S
Fe91        O103   2.109       .  S
Fe91         O92   2.032       .  S
Fe91        O100   1.930       .  S
O92          C99   1.264       .  A
O93         C107   1.276       .  A
O94          C99   1.276       .  A
O95          C98   1.272       .  A
O96         C108   1.277       .  A
O97         C110   1.265       .  A
C98         O103   1.279       .  A
C98         C433   1.491       .  S
C99         C386   1.468       .  S
O101        C104   1.275       .  A
O102        C104   1.268       .  A
C104        C414   1.485       .  S
O105        C110   1.280       .  A
O106        C108   1.262       .  A
C107        O109   1.266       .  A
C107        C349   1.488   1_554  S
C108        C330   1.475       .  S
C110        C582   1.477       .  S
Fe111       O127   2.128       .  S
Fe111       O117   2.045       .  S
Fe111       O124   2.051       .  S
Fe111       O116   2.119       .  S
Fe111       O122   1.936       .  S
Fe112       O115   2.105       .  S
Fe112       O119   2.042       .  S
Fe112       O123   2.103       .  S
Fe112       O128   2.020       .  S
Fe112       O122   1.932       .  S
Fe113       O131   2.051       .  S
Fe113       O118   2.104       .  S
Fe113       O125   2.111       .  S
Fe113       O114   2.039       .  S
Fe113       O122   1.938       .  S
O114        C121   1.265       .  A
O115        C129   1.277       .  A
O116        C121   1.279       .  A
O117        C120   1.270       .  A
O118        C130   1.277       .  A
O119        C132   1.266       .  A
C120        O125   1.279       .  A
C120        C442   1.489       .  S
C121        C302   1.480       .  S
O123        C126   1.276       .  A
O124        C126   1.266       .  A
C126        C405   1.498       .  S
O127        C132   1.283       .  A
O128        C130   1.262       .  A
C129        O131   1.270       .  A
C129        C265   1.499       .  S
C130        C237   1.478       .  S
C132        C694   1.485       .  S
Fe133       O149   2.040       .  S
Fe133       O139   2.136       .  S
Fe133       O146   2.137       .  S
Fe133       O138   2.048       .  S
Fe133       O144   1.938       .  S
Fe134       O137   2.019       .  S
Fe134       O141   2.097       .  S
Fe134       O145   2.026       .  S
Fe134       O150   2.118       .  S
Fe134       O144   1.935       .  S
Fe135       O153   2.102       .  S
Fe135       O140   2.043       .  S
Fe135       O147   2.033       .  S
Fe135       O136   2.090       .  S
Fe135       O144   1.943       .  S
O136        C143   1.274       .  A
O137        C151   1.259       .  A
O138        C143   1.267       .  A
O139        C142   1.286       .  A
O140        C152   1.268       .  A
O141        C154   1.274       .  A
C142        O147   1.268       .  A
C142        C274   1.500       .  S
C143        C209   1.486       .  S
O145        C148   1.267       .  A
O146        C148   1.286       .  A
C148        C470   1.497       .  S
O149        C154   1.265       .  A
O150        C152   1.280       .  A
C151        O153   1.272       .  A
C151        C321   1.463       .  S
C152        C293   1.489   1_556  S
C154        C190   1.483       .  S
Fe155       O171   2.038       .  S
Fe155       O161   2.106       .  S
Fe155       O168   2.101       .  S
Fe155       O160   2.048       .  S
Fe155       O166   1.939       .  S
Fe156       O159   2.036       .  S
Fe156       O163   2.096       .  S
Fe156       O167   2.032       .  S
Fe156       O172   2.112       .  S
Fe156       O166   1.937       .  S
Fe157       O175   2.106       .  S
Fe157       O162   2.040       .  S
Fe157       O169   2.033       .  S
Fe157       O158   2.085       .  S
Fe157       O166   1.941       .  S
O158        C165   1.270       .  A
O159        C173   1.261       .  A
O160        C165   1.266       .  A
O161        C164   1.280       .  A
O162        C174   1.266       .  A
O163        C176   1.275       .  A
C164        O169   1.269       .  A
C164        C358   1.470       .  S
C165        C218   1.487       .  S
O167        C170   1.266       .  A
O168        C170   1.277       .  A
C170        C498   1.476       .  S
O171        C176   1.265       .  A
O172        C174   1.278       .  A
C173        O175   1.274       .  A
C173        C246   1.467       .  S
C174        C377   1.484       .  S
C176        C181   1.479       .  S
C177        C178   1.401       .  A
C177        C182   1.400       .  A
C177        H187   1.083       .  S
C178        C183   1.482       .  S
C178        C179   1.411       .  A
C179        C180   1.402       .  A
C179        N184   1.431       .  S
C180        C181   1.404       .  A
C180        H185   1.083       .  S
C181        C182   1.414       .  A
C182        N186   1.430       .  S
C183        C188   1.413       .  A
C183        C192   1.400       .  A
N184        O199   1.262       .  A
N184        O200   1.262       .  A
N186        O197   1.262       .  A
N186        O198   1.262       .  A
C188        C189   1.406       .  A
C188        N193   1.435       .  S
C189        C190   1.405       .  A
C189        H194   1.083       .  S
C190        C191   1.415       .  A
C191        C192   1.401       .  A
C191        N195   1.435       .  S
C192        H196   1.084       .  S
N193        O203   1.262       .  A
N193        O204   1.263       .  A
N195        O201   1.262       .  A
N195        O202   1.262       .  A
C205        C206   1.401       .  A
C205        C210   1.397       .  A
C205        H215   1.084       .  S
C206        C211   1.484   1_455  S
C206        C207   1.411       .  A
C207        C208   1.405       .  A
C207        N212   1.434       .  S
C208        C209   1.407       .  A
C208        H213   1.083       .  S
C209        C210   1.416       .  A
C210        N214   1.431       .  S
C211        C216   1.409       .  A
C211        C220   1.404       .  A
N212        O227   1.262       .  A
N212        O228   1.263   1_455  A
N214        O225   1.262       .  A
N214        O226   1.262       .  A
C216        C217   1.398       .  A
C216        N221   1.435       .  S
C217        C218   1.408       .  A
C217        H222   1.084       .  S
C218        C219   1.418       .  A
C219        C220   1.405       .  A
C219        N223   1.435       .  S
C220        H224   1.084       .  S
N221        O231   1.262       .  A
N221        O232   1.263       .  A
N223        O229   1.263       .  A
N223        O230   1.263       .  A
C233        C234   1.400       .  A
C233        C238   1.395       .  A
C233        H243   1.083       .  S
C234        C239   1.480   1_565  S
C234        C235   1.415   1_565  A
C235        C236   1.404   1_545  A
C235        N240   1.438       .  S
C236        C237   1.404       .  A
C236        H241   1.083   1_565  S
C237        C238   1.417       .  A
C238        N242   1.435       .  S
C239        C244   1.417       .  A
C239        C248   1.399       .  A
N240        O255   1.263       .  A
N240        O256   1.263       .  A
N242        O253   1.262       .  A
N242        O254   1.263       .  A
C244        C245   1.407       .  A
C244        N249   1.438   1_545  S
C245        C246   1.401       .  A
C245        H250   1.084       .  S
C246        C247   1.405       .  A
C247        C248   1.392       .  A
C247        N251   1.424       .  S
C248        H252   1.084       .  S
N249        O259   1.262       .  A
N249        O260   1.262   1_565  A
N251        O257   1.260       .  A
N251        O258   1.262       .  A
C261        C262   1.404       .  A
C261        C266   1.406       .  A
C261        H271   1.083       .  S
C262        C267   1.491   1_565  S
C262        C263   1.406       .  A
C263        C264   1.403       .  A
C263        N268   1.429   1_565  S
C264        C265   1.411       .  A
C264        H269   1.083       .  S
C265        C266   1.420       .  A
C266        N270   1.430       .  S
C267        C272   1.405   1_545  A
C267        C276   1.408       .  A
N268        O283   1.262       .  A
N268        O284   1.262       .  A
N270        O281   1.262       .  A
N270        O282   1.262       .  A
C272        C273   1.399   1_565  A
C272        N277   1.432       .  S
C273        C274   1.413       .  A
C273        H278   1.083       .  S
C274        C275   1.417       .  A
C275        C276   1.414       .  A
C275        N279   1.434       .  S
C276        H280   1.083       .  S
N277        O287   1.262       .  A
N277        O288   1.262       .  A
N279        O285   1.263       .  A
N279        O286   1.262       .  A
C289        C290   1.410       .  A
C289        C294   1.406       .  A
C289        H299   1.082       .  S
C290        C295   1.498   1_545  S
C290        C291   1.414       .  A
C291        C292   1.402       .  A
C291        N296   1.435   1_545  S
C292        C293   1.408       .  A
C292        H297   1.083   1_554  S
C293        C294   1.410       .  A
C294        N298   1.431       .  S
C295        C300   1.417       .  A
C295        C304   1.410       .  A
N296        O311   1.262       .  A
N296        O312   1.263       .  A
N298        O309   1.262       .  A
N298        O310   1.262       .  A
C300        C301   1.404       .  A
C300        N305   1.436   1_565  S
C301        C302   1.403       .  A
C301        H306   1.083       .  S
C302        C303   1.409       .  A
C303        C304   1.405       .  A
C303        N307   1.431       .  S
C304        H308   1.082       .  S
N305        O315   1.262       .  A
N305        O316   1.263       .  A
N307        O313   1.262       .  A
N307        O314   1.262       .  A
C317        C318   1.406   1_566  A
C317        C322   1.404   1_565  A
C317        H327   1.084       .  S
C318        C323   1.468   1_545  S
C318        C319   1.402       .  A
C319        C320   1.389   1_554  A
C319        N324   1.432       .  S
C320        C321   1.403       .  A
C320        H325   1.085   1_556  S
C321        C322   1.407       .  A
C322        N326   1.432   1_545  S
C323        C328   1.400       .  A
C323        C332   1.403   1_565  A
N324        O339   1.262       .  A
N324        O340   1.262       .  A
N326        O337   1.262   1_565  A
N326        O338   1.262       .  A
C328        C329   1.395       .  A
C328        N333   1.429       .  S
C329        C330   1.410       .  A
C329        H334   1.084       .  S
C330        C331   1.411       .  A
C331        C332   1.398   1_565  A
C331        N335   1.430   1_565  S
C332        H336   1.084       .  S
N333        O343   1.262       .  A
N333        O344   1.262       .  A
N335        O341   1.262   1_554  A
N335        O342   1.262       .  A
C345        C346   1.397       .  A
C345        C350   1.399       .  A
C345        H355   1.084   1_565  S
C346        C351   1.472   1_565  S
C346        C347   1.405       .  A
C347        C348   1.400       .  A
C347        N352   1.431       .  S
C348        C349   1.409       .  A
C348        H353   1.083       .  S
C349        C350   1.419       .  A
C350        N354   1.430   1_556  S
C351        C356   1.409       .  A
C351        C360   1.397   1_545  A
N352        O367   1.262       .  A
N352        O368   1.262       .  A
N354        O365   1.262       .  A
N354        O366   1.262       .  A
C356        C357   1.403       .  A
C356        N361   1.429       .  S
C357        C358   1.403       .  A
C357        H362   1.083       .  S
C358        C359   1.413       .  A
C359        C360   1.395   1_545  A
C359        N363   1.432       .  S
C360        H364   1.084       .  S
N361        O371   1.262       .  A
N361        O372   1.262       .  A
N363        O369   1.262   1_545  A
N363        O370   1.262       .  A
C373        C374   1.407       .  A
C373        C378   1.405       .  A
C373        H383   1.083       .  S
C374        C379   1.489   1_545  S
C374        C375   1.411       .  A
C375        C376   1.398       .  A
C375        N380   1.435   1_545  S
C376        C377   1.408       .  A
C376        H381   1.084       .  S
C377        C378   1.413       .  A
C378        N382   1.432       .  S
C379        C384   1.414       .  A
C379        C388   1.407       .  A
N380        O395   1.262       .  A
N380        O396   1.263       .  A
N382        O393   1.262       .  A
N382        O394   1.262       .  A
C384        C385   1.397       .  A
C384        N389   1.430   1_565  S
C385        C386   1.400       .  A
C385        H390   1.084       .  S
C386        C387   1.407       .  A
C387        C388   1.400       .  A
C387        N391   1.429       .  S
C388        H392   1.083       .  S
N389        O399   1.262       .  A
N389        O400   1.261       .  A
N391        O397   1.262       .  A
N391        O398   1.262       .  A
C401        C402   1.401       .  A
C401        C406   1.404       .  A
C401        H411   1.083       .  S
C402        C407   1.489       .  S
C402        C403   1.409       .  A
C403        C404   1.404       .  A
C403        N408   1.429       .  S
C404        C405   1.409       .  A
C404        H409   1.082       .  S
C405        C406   1.422       .  A
C406        N410   1.430       .  S
C407        C412   1.413       .  A
C407        C416   1.402       .  A
N408        O423   1.262       .  A
N408        O424   1.262       .  A
N410        O421   1.262       .  A
N410        O422   1.262       .  A
C412        C413   1.409       .  A
C412        N417   1.433       .  S
C413        C414   1.405       .  A
C413        H418   1.083       .  S
C414        C415   1.415       .  A
C415        C416   1.401       .  A
C415        N419   1.436       .  S
C416        H420   1.083       .  S
N417        O427   1.262       .  A
N417        O428   1.262       .  A
N419        O425   1.262       .  A
N419        O426   1.263       .  A
C429        C430   1.404       .  A
C429        C434   1.406       .  A
C429        H439   1.083       .  S
C430        C435   1.488   1_655  S
C430        C431   1.413       .  A
C431        C432   1.401       .  A
C431        N436   1.438       .  S
C432        C433   1.407       .  A
C432        H437   1.083       .  S
C433        C434   1.415       .  A
C434        N438   1.429       .  S
C435        C440   1.412       .  A
C435        C444   1.405       .  A
N436        O451   1.263       .  A
N436        O452   1.263       .  A
N438        O449   1.261       .  A
N438        O450   1.262       .  A
C440        C441   1.400       .  A
C440        N445   1.438       .  S
C441        C442   1.407       .  A
C441        H446   1.084       .  S
C442        C443   1.413       .  A
C443        C444   1.408       .  A
C443        N447   1.431       .  S
C444        H448   1.084       .  S
N445        O455   1.263       .  A
N445        O456   1.263       .  A
N447        O453   1.262       .  A
N447        O454   1.262       .  A
C457        C458   1.396       .  A
C457        C462   1.398       .  A
C457        H467   1.084   1_554  S
C458        C463   1.487   1_554  S
C458        C459   1.416       .  A
C459        C460   1.411       .  A
C459        N464   1.433       .  S
C460        C461   1.404       .  A
C460        H465   1.083       .  S
C461        C462   1.417       .  A
C462        N466   1.429       .  S
C463        C468   1.407   1_556  A
C463        C472   1.406       .  A
N464        O479   1.262       .  A
N464        O480   1.262       .  A
N466        O477   1.261       .  A
N466        O478   1.262   1_554  A
C468        C469   1.400   1_554  A
C468        N473   1.434       .  S
C469        C470   1.412       .  A
C469        H474   1.083   1_556  S
C470        C471   1.414       .  A
C471        C472   1.409       .  A
C471        N475   1.427       .  S
C472        H476   1.083       .  S
N473        O483   1.262       .  A
N473        O484   1.262       .  A
N475        O481   1.262       .  A
N475        O482   1.262       .  A
C485        C486   1.407       .  A
C485        C490   1.406       .  A
C485        H495   1.084       .  S
C486        C491   1.478       .  S
C486        C487   1.407       .  A
C487        C488   1.395       .  A
C487        N492   1.437       .  S
C488        C489   1.409       .  A
C488        H493   1.084       .  S
C489        C490   1.409       .  A
C490        N494   1.428       .  S
C491        C496   1.416       .  A
C491        C500   1.398       .  A
N492        O507   1.263       .  A
N492        O508   1.262       .  A
N494        O505   1.262       .  A
N494        O506   1.262       .  A
C496        C497   1.405       .  A
C496        N501   1.437       .  S
C497        C498   1.402       .  A
C497        H502   1.083       .  S
C498        C499   1.415       .  A
C499        C500   1.399       .  A
C499        N503   1.436       .  S
C500        H504   1.083       .  S
N501        O511   1.263       .  A
N501        O512   1.263       .  A
N503        O509   1.262       .  A
N503        O510   1.263       .  A
C513        C514   1.411       .  A
C513        C518   1.406       .  A
C513        H523   1.069       .  S
C514        C519   1.494       .  S
C514        C515   1.413       .  A
C515        C516   1.405       .  A
C515        N520   1.435       .  S
C516        C517   1.407       .  A
C516        H521   1.059       .  S
C517        C518   1.407       .  A
C518        N522   1.430       .  S
C519        C524   1.413       .  A
C519        C528   1.407       .  A
N520        O535   1.262       .  A
N520        O536   1.263       .  A
N522        O533   1.262       .  A
N522        O534   1.262       .  A
C524        C525   1.402       .  A
C524        N529   1.435       .  S
C525        C526   1.409       .  A
C525        H530   1.081       .  S
C526        C527   1.415       .  A
C527        C528   1.404       .  A
C527        N531   1.429       .  S
C528        H532   1.080       .  S
N529        O539   1.262       .  A
N529        O540   1.262       .  A
N531        O537   1.262       .  A
N531        O538   1.262       .  A
C541        C542   1.405       .  A
C541        C546   1.409       .  A
C541        H551   1.083   1_655  S
C542        C547   1.489   1_655  S
C542        C543   1.409       .  A
C543        C544   1.400       .  A
C543        N548   1.433       .  S
C544        C545   1.408       .  A
C544        H549   1.083       .  S
C545        C546   1.416       .  A
C546        N550   1.434       .  S
C547        C552   1.412       .  A
C547        C556   1.403       .  A
N548        O563   1.262       .  A
N548        O564   1.262       .  A
N550        O561   1.262       .  A
N550        O562   1.263       .  A
C552        C553   1.407       .  A
C552        N557   1.435       .  S
C553        C554   1.409       .  A
C553        H558   1.083       .  S
C554        C555   1.415       .  A
C555        C556   1.403       .  A
C555        N559   1.430       .  S
C556        H560   1.084   1_455  S
N557        O567   1.262       .  A
N557        O568   1.263       .  A
N559        O565   1.262       .  A
N559        O566   1.262       .  A
C569        C570   1.398   1_554  A
C569        C574   1.396   1_554  A
C569        H579   1.083       .  S
C570        C575   1.489   1_556  S
C570        C571   1.413       .  A
C571        C572   1.408       .  A
C571        N576   1.433       .  S
C572        C573   1.408       .  A
C572        H577   1.082       .  S
C573        C574   1.423       .  A
C574        N578   1.430   1_556  S
C575        C580   1.416       .  A
C575        C584   1.404   1_554  A
N576        O591   1.262       .  A
N576        O592   1.262       .  A
N578        O589   1.262       .  A
N578        O590   1.262       .  A
C580        C581   1.405       .  A
C580        N585   1.435       .  S
C581        C582   1.403       .  A
C581        H586   1.083       .  S
C582        C583   1.412       .  A
C583        C584   1.401   1_554  A
C583        N587   1.433       .  S
C584        H588   1.083       .  S
N585        O595   1.262       .  A
N585        O596   1.263       .  A
N587        O593   1.262       .  A
N587        O594   1.262   1_554  A
C597        C598   1.406       .  A
C597        C602   1.410       .  A
C597        H607   1.084       .  S
C598        C603   1.480       .  S
C598        C599   1.403       .  A
C599        C600   1.393       .  A
C599        N604   1.430       .  S
C600        C601   1.406       .  A
C600        H605   1.084       .  S
C601        C602   1.412       .  A
C602        N606   1.433       .  S
C603        C608   1.402       .  A
C603        C612   1.402       .  A
N604        O619   1.262       .  A
N604        O620   1.262       .  A
N606        O617   1.262       .  A
N606        O618   1.262       .  A
C608        C609   1.399       .  A
C608        N613   1.428       .  S
C609        C610   1.412       .  A
C609        H614   1.083       .  S
C610        C611   1.418       .  A
C611        C612   1.404       .  A
C611        N615   1.430       .  S
C612        H616   1.084       .  S
N613        O623   1.262       .  A
N613        O624   1.262       .  A
N615        O621   1.262       .  A
N615        O622   1.262       .  A
C625        C626   1.402       .  A
C625        C630   1.397       .  A
C625        H635   1.082       .  S
C626        C631   1.495       .  S
C626        C627   1.419       .  A
C627        C628   1.408       .  A
C627        N632   1.436       .  S
C628        C629   1.403       .  A
C628        H633   1.082       .  S
C629        C630   1.416       .  A
C630        N634   1.430   1_554  S
C631        C636   1.419       .  A
C631        C640   1.406       .  A
N632        O647   1.262       .  A
N632        O648   1.263       .  A
N634        O645   1.262       .  A
N634        O646   1.262       .  A
C636        C637   1.406       .  A
C636        N641   1.436       .  S
C637        C638   1.402       .  A
C637        H642   1.083       .  S
C638        C639   1.409       .  A
C639        C640   1.399       .  A
C639        N643   1.431       .  S
C640        H644   1.082       .  S
N641        O651   1.263       .  A
N641        O652   1.263       .  A
N643        O649   1.262       .  A
N643        O650   1.262       .  A
C653        C654   1.407       .  A
C653        C658   1.404       .  A
C653        H663   1.083       .  S
C654        C659   1.467   1_454  S
C654        C655   1.403       .  A
C655        C656   1.389       .  A
C655        N660   1.432   1_554  S
C656        C657   1.402       .  A
C656        H661   1.084       .  S
C657        C658   1.404       .  A
C658        N662   1.430       .  S
C659        C664   1.407   1_556  A
C659        C668   1.401       .  A
N660        O675   1.262       .  A
N660        O676   1.262   1_455  A
N662        O673   1.262       .  A
N662        O674   1.262       .  A
C664        C665   1.398   1_554  A
C664        N669   1.431       .  S
C665        C666   1.403       .  A
C665        H670   1.084       .  S
C666        C667   1.408       .  A
C667        C668   1.395       .  A
C667        N671   1.429       .  S
C668        H672   1.083   1_655  S
N669        O679   1.262       .  A
N669        O680   1.262       .  A
N671        O677   1.262       .  A
N671        O678   1.262       .  A
C681        C682   1.412       .  A
C681        C686   1.411       .  A
C681        H691   1.082       .  S
C682        C687   1.505       .  S
C682        C683   1.413       .  A
C683        C684   1.403       .  A
C683        N688   1.436       .  S
C684        C685   1.412       .  A
C684        H689   1.082       .  S
C685        C686   1.414       .  A
C686        N690   1.428       .  S
C687        C692   1.417       .  A
C687        C696   1.411       .  A
N688        O703   1.262       .  A
N688        O704   1.263       .  A
N690        O701   1.262       .  A
N690        O702   1.262       .  A
C692        C693   1.408       .  A
C692        N697   1.434       .  S
C693        C694   1.405       .  A
C693        H698   1.083       .  S
C694        C695   1.409       .  A
C695        C696   1.406       .  A
C695        N699   1.431       .  S
C696        H700   1.082       .  S
N697        O707   1.262       .  A
N697        O708   1.262       .  A
N699        O705   1.262       .  A
N699        O706   1.262       .  A
C709        C710   1.406       .  A
C709        C714   1.409       .  A
C709        H719   1.082       .  S
C710        C715   1.494       .  S
C710        C711   1.413       .  A
C711        C712   1.402       .  A
C711        N716   1.434       .  S
C712        C713   1.406       .  A
C712        H717   1.082       .  S
C713        C714   1.416       .  A
C714        N718   1.438       .  S
C715        C720   1.416       .  A
C715        C724   1.402       .  A
N716        O731   1.262       .  A
N716        O732   1.262       .  A
N718        O729   1.263       .  A
N718        O730   1.263       .  A
C720        C721   1.409       .  A
C720        N725   1.432       .  S
C721        C722   1.404       .  A
C721        H726   1.083       .  S
C722        C723   1.417       .  A
C723        C724   1.399       .  A
C723        N727   1.433       .  S
C724        H728   1.083       .  S
N725        O735   1.262       .  A
N725        O736   1.262       .  A
N727        O733   1.262       .  A
N727        O734   1.262       .  A
C737        C738   1.399       .  A
C737        C742   1.396       .  A
C737        H747   1.084       .  S
C738        C743   1.487       .  S
C738        C739   1.420       .  A
C739        C740   1.409       .  A
C739        N744   1.435       .  S
C740        C741   1.401       .  A
C740        H745   1.083       .  S
C741        C742   1.415       .  A
C742        N746   1.431       .  S
C743        C748   1.410       .  A
C743        C752   1.405       .  A
N744        O759   1.262       .  A
N744        O760   1.262       .  A
N746        O757   1.262       .  A
N746        O758   1.262       .  A
C748        C749   1.403       .  A
C748        N753   1.437       .  S
C749        C750   1.410       .  A
C749        H754   1.083       .  S
C750        C751   1.415       .  A
C751        C752   1.405       .  A
C751        N755   1.436       .  S
C752        H756   1.084       .  S
N753        O763   1.262       .  A
N753        O764   1.263       .  A
N755        O761   1.263       .  A
N755        O762   1.263       .  A
C765        C766   1.401       .  A
C765        C770   1.402       .  A
C765        H775   1.084       .  S
C766        C771   1.476       .  S
C766        C767   1.405       .  A
C767        C768   1.400       .  A
C767        N772   1.429       .  S
C768        C769   1.407       .  A
C768        H773   1.084       .  S
C769        C770   1.414       .  A
C770        N774   1.431       .  S
C771        C776   1.409       .  A
C771        C780   1.404       .  A
N772        O787   1.262       .  A
N772        O788   1.262       .  A
N774        O785   1.262       .  A
N774        O786   1.262       .  A
C776        C777   1.400       .  A
C776        N781   1.433       .  S
C777        C778   1.401       .  A
C777        H782   1.085       .  S
C778        C779   1.407       .  A
C779        C780   1.403       .  A
C779        N783   1.430       .  S
C780        H784   1.084       .  S
N781        O791   1.262       .  A
N781        O792   1.262       .  A
N783        O789   1.262       .  A
N783        O790   1.262       .  A
C793        C794   1.406       .  A
C793        C798   1.407       .  A
C793        H803   1.083   1_655  S
C794        C799   1.491   1_655  S
C794        C795   1.410       .  A
C795        C796   1.400       .  A
C795        N800   1.435       .  S
C796        C797   1.409       .  A
C796        H801   1.083       .  S
C797        C798   1.419       .  A
C798        N802   1.434       .  S
C799        C804   1.413       .  A
C799        C808   1.404       .  A
N800        O815   1.262       .  A
N800        O816   1.262       .  A
N802        O813   1.262       .  A
N802        O814   1.262       .  A
C804        C805   1.407       .  A
C804        N809   1.434       .  S
C805        C806   1.406       .  A
C805        H810   1.084       .  S
C806        C807   1.410       .  A
C807        C808   1.398       .  A
C807        N811   1.430       .  S
C808        H812   1.084   1_455  S
N809        O819   1.262       .  A
N809        O820   1.262       .  A
N811        O817   1.261       .  A
N811        O818   1.262       .  A
C821        C822   1.397       .  A
C821        C826   1.398       .  A
C821        H831   1.079       .  S
C822        C827   1.466   1_455  S
C822        C823   1.406       .  A
C823        C824   1.400       .  A
C823        N828   1.430   1_455  S
C824        C825   1.404       .  A
C824        H829   1.076       .  S
C825        C826   1.412       .  A
C826        N830   1.433       .  S
C827        C832   1.408       .  A
C827        C836   1.392       .  A
N828        O843   1.262       .  A
N828        O844   1.262       .  A
N830        O841   1.262       .  A
N830        O842   1.261       .  A
C832        C833   1.402       .  A
C832        N837   1.431       .  S
C833        C834   1.404       .  A
C833        H838   1.082       .  S
C834        C835   1.423       .  A
C835        C836   1.392       .  A
C835        N839   1.433       .  S
C836        H840   1.083   1_655  S
N837        O847   1.262       .  A
N837        O848   1.262       .  A
N839        O845   1.262       .  A
N839        O846   1.262       .  A
