geometry optimzed in LAMMPS
_audit_creation_date              2020-12-01 
_audit_creation_method            'lammps2cif' 
_symmetry_space_group_name_H-M    'P1' 
_symmetry_Int_Tables_number       1 
_symmetry_cell_setting            triclinic 
loop_ 
_symmetry_equiv_pos_as_xyz 
  x,y,z 
_cell_length_a                    36.62692329 
_cell_length_b                    42.64054930059803 
_cell_length_c                    43.28746038222703 
_cell_angle_alpha                 89.60158760775543 
_cell_angle_beta                  90.17758746300814 
_cell_angle_gamma                 89.96917593807423 
loop_ 
_atom_site_label 
_atom_site_type_symbol 
_atom_site_fract_x 
_atom_site_fract_y 
_atom_site_fract_z 
_atom_site_charge 
Fe1        Fe  0.85327203  0.46472158  0.37047011     1.65800
Fe2        Fe  0.85958589  0.40005336  0.41402457     1.73200
Fe3        Fe  0.78173639  0.41488360  0.37440542     1.54400
O4          O  0.76048466  0.45859847  0.38546597    -0.81900
O5          O  0.83560567  0.35781798  0.39969073    -0.80200
O6          O  0.80394304  0.48939317  0.36667416    -0.84400
O7          O  0.84687064  0.44916393  0.32612863    -0.79200
O8          O  0.76954599  0.39828113  0.41896830    -0.81000
O9          O  0.90120552  0.39597311  0.38222867    -0.83700
C10         C  0.81813874  0.43843738  0.31334177     0.97000
C11         C  0.77118471  0.48508608  0.37539454     1.04500
O12         O  0.83122457  0.42633788  0.38609349    -1.12700
O13         O  0.88519952  0.43846645  0.43475185    -0.75200
O14         O  0.85874942  0.48090803  0.41503883    -0.78600
O15         O  0.79044831  0.42895536  0.32864743    -0.79300
C16         C  0.87489511  0.46692402  0.43717991     0.95900
O17         O  0.90687694  0.44651657  0.37129144    -0.77300
O18         O  0.82030906  0.40301721  0.44704275    -0.82500
C19         C  0.81165428  0.35010607  0.37974852     0.98500
C20         C  0.78703124  0.39556882  0.44450694     1.04500
O21         O  0.79683601  0.37013562  0.36197897    -0.78100
C22         C  0.92070709  0.41911626  0.37389907     1.02800
Fe23       Fe  0.85062870  0.02434115  0.62300895     1.65800
Fe24       Fe  0.85552401  0.09314744  0.58534219     1.73200
Fe25       Fe  0.77849807  0.07326708  0.62270997     1.54400
O26         O  0.75840015  0.03103685  0.60688227    -0.81900
O27         O  0.83118710  0.13348289  0.60396848    -0.80200
O28         O  0.80162705  0.99899622  0.62445893    -0.84400
O29         O  0.84423115  0.03577094  0.66853615    -0.79200
O30         O  0.76587958  0.09423705  0.58003611    -0.81000
O31         O  0.89654394  0.09463197  0.61763976    -0.83700
C32         C  0.81516017  0.04471995  0.68180386     0.97000
C33         C  0.76923319  0.00392853  0.61486266     1.04500
O34         O  0.82795637  0.06367643  0.61043200    -1.12700
O35         O  0.88131125  0.05726361  0.56084571    -0.75200
O36         O  0.85648265  0.01245269  0.57731402    -0.78600
O37         O  0.78719689  0.05477547  0.66700143    -0.79300
C38         C  0.87187553  0.02883854  0.55647677     0.95900
O39         O  0.90352825  0.04331713  0.62379169    -0.77300
O40         O  0.81662520  0.09295275  0.55202183    -0.82500
C41         C  0.80733627  0.13855653  0.62474060     0.98500
C42         C  0.78321122  0.09939890  0.55490681     1.04500
O43         O  0.79336178  0.11607846  0.63972719    -0.78100
C44         C  0.91640384  0.07106845  0.62395962     1.02800
Fe45       Fe  0.14681892  0.46637968  0.36616860     1.65800
Fe46       Fe  0.14199880  0.40032272  0.40815266     1.73200
Fe47       Fe  0.21840303  0.41656412  0.36710847     1.54400
O48         O  0.20806058  0.43144845  0.32203919    -0.81900
O49         O  0.18306281  0.40206207  0.43959720    -0.80200
O50         O  0.15223237  0.45285369  0.32102355    -0.84400
O51         O  0.19588867  0.49128146  0.36297216    -0.79200
O52         O  0.20260416  0.37237868  0.35440792    -0.81000
O53         O  0.11742202  0.43793772  0.43115104    -0.83700
C54         C  0.22900219  0.48644891  0.37065829     0.97000
C55         C  0.18036030  0.44211072  0.30749121     1.04500
O56         O  0.16927673  0.42755614  0.38025935    -1.12700
O57         O  0.09830177  0.39721379  0.37806449    -0.75200
O58         O  0.09369402  0.44788533  0.36689662    -0.78600
O59         O  0.24022404  0.45949460  0.37852771    -0.79300
C60         C  0.07943287  0.42074043  0.36938086     0.95900
O61         O  0.14162020  0.48110487  0.41118060    -0.77300
O62         O  0.16494375  0.35850014  0.39177069    -0.82500
C63         C  0.21695344  0.39696553  0.43646665     0.98500
C64         C  0.18870756  0.35142072  0.37161475     1.04500
O65         O  0.23322779  0.40004053  0.41070035    -0.78100
C66         C  0.12582152  0.46680707  0.43330581     1.02800
Fe67       Fe  0.14004815  0.03298779  0.61867330     1.65800
Fe68       Fe  0.13672343  0.10225887  0.58069511     1.73200
Fe69       Fe  0.21464634  0.07968155  0.61766116     1.54400
O70         O  0.20110071  0.06890882  0.66303449    -0.81900
O71         O  0.17841398  0.10703127  0.55014533    -0.80200
O72         O  0.14585171  0.04621993  0.66376398    -0.84400
O73         O  0.18682555  0.00559501  0.62307824    -0.79200
O74         O  0.20658260  0.12585660  0.62726676    -0.81000
O75         O  0.11607953  0.06599733  0.55292833    -0.83700
C76         C  0.22041436  0.00898796  0.61729353     0.97000
C77         C  0.17287818  0.05883441  0.67739970     1.04500
O78         O  0.16411553  0.07191535  0.60562091    -1.12700
O79         O  0.09201918  0.10173025  0.60937441    -0.75200
O80         O  0.08734863  0.05090776  0.61792337    -0.78600
O81         O  0.23318175  0.03515187  0.60905099    -0.79300
C82         C  0.07323397  0.07799855  0.61657373     0.95900
O83         O  0.13465640  0.02029870  0.57317460    -0.77300
O84         O  0.15582848  0.14188369  0.60370674    -0.82500
C85         C  0.21263366  0.10286173  0.55031120     0.98500
C86         C  0.18470631  0.14732067  0.61921921     1.04500
O87         O  0.23013362  0.09191060  0.57337984    -0.78100
C88         C  0.12200411  0.03653763  0.55068674     1.02800
Fe89       Fe  0.35642520  0.21264570  0.37114167     1.65800
Fe90       Fe  0.35861764  0.14380210  0.40924322     1.73200
Fe91       Fe  0.28087799  0.16649803  0.37142922     1.54400
O92         O  0.26250792  0.21113187  0.38105104    -0.81900
O93         O  0.33705415  0.10416673  0.38827520    -0.80200
O94         O  0.30989462  0.24057488  0.36885594    -0.84400
O95         O  0.34888074  0.20071436  0.32552647    -0.79200
O96         O  0.26572938  0.15317003  0.41571536    -0.81000
O97         O  0.40191605  0.14222932  0.37919897    -0.83700
C98         C  0.32113524  0.18928649  0.31175762     0.97000
C99         C  0.27609972  0.23747728  0.37416576     1.04500
O100        O  0.33157632  0.17409111  0.38388188    -1.12700
O101        O  0.38230906  0.17927052  0.43622767    -0.75200
O102        O  0.36364954  0.22509135  0.41691853    -0.78600
O103        O  0.29308391  0.17873089  0.32593883    -0.79300
C104        C  0.37660241  0.20863296  0.43911858     0.95900
O105        O  0.40848184  0.19278799  0.37027763    -0.77300
O106        O  0.31780669  0.14180207  0.44054380    -0.82500
C107        C  0.30960599  0.09866324  0.37111417     0.98500
C108        C  0.28343592  0.14444408  0.43961771     1.04500
O109        O  0.28945861  0.12031785  0.36041608    -0.78100
C110        C  0.42151624  0.16516881  0.37116003     1.02800
Fe111      Fe  0.35166270  0.28045821  0.62042852     1.65800
Fe112      Fe  0.35671178  0.34596834  0.57713022     1.73200
Fe113      Fe  0.27960014  0.33021359  0.61726441     1.54400
O114        O  0.25853774  0.28652219  0.60857133    -0.81900
O115        O  0.33366619  0.38848605  0.59201109    -0.80200
O116        O  0.30313387  0.25479703  0.62351838    -0.84400
O117        O  0.34479203  0.29495044  0.66536078    -0.79200
O118        O  0.26549267  0.34321616  0.57260878    -0.81000
O119        O  0.39893619  0.34979884  0.60839565    -0.83700
C120        C  0.31691381  0.30712589  0.67817639     0.97000
C121        C  0.26990239  0.25965039  0.61637664     1.04500
O122        O  0.32901713  0.31903160  0.60510316    -1.12700
O123        O  0.38209400  0.30794325  0.55526702    -0.75200
O124        O  0.35857235  0.26467262  0.57566057    -0.78600
O125        O  0.29013872  0.31852892  0.66297346    -0.79300
C126        C  0.37459778  0.27884636  0.55351260     0.95900
O127        O  0.40441881  0.29939384  0.62017715    -0.77300
O128        O  0.31667675  0.34355748  0.54475976    -0.82500
C129        C  0.30875256  0.39622876  0.61092805     0.98500
C130        C  0.28238116  0.34675003  0.54718536     1.04500
O131        O  0.29288776  0.37580266  0.62749492    -0.78100
C132        C  0.41821274  0.32668523  0.61718979     1.02800
Fe133      Fe  0.64338237  0.21546379  0.37182793     1.65800
Fe134      Fe  0.63584011  0.14928573  0.41315028     1.73200
Fe135      Fe  0.71601136  0.16752132  0.37873439     1.54400
O136        O  0.70927424  0.18086095  0.33226711    -0.81900
O137        O  0.67200676  0.15295865  0.44851002    -0.80200
O138        O  0.65279780  0.20110821  0.32733212    -0.84400
O139        O  0.69136338  0.24193123  0.37111846    -0.79200
O140        O  0.70452285  0.12238694  0.36579080    -0.81000
O141        O  0.60723460  0.18653147  0.43300350    -0.83700
C142        C  0.72333680  0.23803106  0.38186783     0.97000
C143        C  0.68215485  0.19020742  0.31587852     1.04500
O144        O  0.66540326  0.17709151  0.38753924    -1.12700
O145        O  0.59714218  0.14487673  0.37881629    -0.75200
O146        O  0.59121812  0.19576661  0.36984478    -0.78600
O147        O  0.73471609  0.21147242  0.39086256    -0.79300
C148        C  0.57817883  0.16811912  0.36965498     0.95900
O149        O  0.63536007  0.22967889  0.41661264    -0.77300
O150        O  0.66194408  0.10785763  0.39913048    -0.82500
C151        C  0.70622510  0.14954906  0.44873407     0.98500
C152        C  0.68783555  0.10119166  0.38074383     1.04500
O153        O  0.72558782  0.15259884  0.42429560    -0.78100
C154        C  0.61878345  0.21427398  0.43748007     1.02800
Fe155      Fe  0.64299467  0.27561663  0.62519621     1.65800
Fe156      Fe  0.63721186  0.33844813  0.57889373     1.73200
Fe157      Fe  0.71446296  0.32462173  0.61947680     1.54400
O158        O  0.70608689  0.31109436  0.66558560    -0.81900
O159        O  0.67687794  0.33413201  0.54666245    -0.80200
O160        O  0.64881020  0.29299829  0.66904260    -0.84400
O161        O  0.69238687  0.25149004  0.62980177    -0.79200
O162        O  0.69886043  0.36905310  0.63134889    -0.81000
O163        O  0.61252106  0.29908628  0.55872923    -0.83700
C164        C  0.72484881  0.25495056  0.61984024     0.97000
C165        C  0.67819420  0.30288649  0.68135223     1.04500
O166        O  0.66500704  0.31318710  0.60808284    -1.12700
O167        O  0.59496048  0.34367013  0.60962384    -0.75200
O168        O  0.58978230  0.29372185  0.62319777    -0.78600
O169        O  0.73532161  0.28095602  0.60867360    -0.79300
C170        C  0.57597726  0.32093437  0.61973320     0.95900
O171        O  0.63814378  0.25763730  0.58149996    -0.77300
O172        O  0.66041111  0.38127073  0.59334438    -0.82500
C173        C  0.70987961  0.34211127  0.54907120     0.98500
C174        C  0.68313628  0.38924152  0.61432275     1.04500
O175        O  0.72704867  0.34076929  0.57481656    -0.78100
C176        C  0.62360881  0.27072339  0.55809277     1.02800
Fe177      Fe  0.85670035  0.46243713  0.12155596     1.65800
Fe178      Fe  0.85956067  0.39533628  0.08178250     1.73200
Fe179      Fe  0.78210915  0.41614580  0.12032879     1.54400
O180        O  0.79302670  0.43022641  0.16553162    -0.81900
O181        O  0.81920410  0.39535945  0.04968598    -0.80200
O182        O  0.85011048  0.44906249  0.16655244    -0.84400
O183        O  0.80953689  0.48947743  0.12385962    -0.79200
O184        O  0.79301035  0.37052834  0.13358944    -0.81000
O185        O  0.88417916  0.43221829  0.05651090    -0.83700
C186        C  0.77658332  0.48710249  0.11524615     0.97000
C187        C  0.82123915  0.43995197  0.18005101     1.04500
O188        O  0.83249578  0.42430056  0.10795383    -1.12700
O189        O  0.90303305  0.39247498  0.11215173    -0.75200
O190        O  0.90879915  0.44302975  0.12184864    -0.78600
O191        O  0.76334035  0.46064376  0.10808162    -0.79300
C192        C  0.92219768  0.41564905  0.12061807     0.95900
O193        O  0.86326726  0.47652709  0.07657435    -0.77300
O194        O  0.83623769  0.35473229  0.10125969    -0.82500
C195        C  0.78481242  0.39416734  0.05200926     0.98500
C196        C  0.81051878  0.34882749  0.12029229     1.04500
O197        O  0.76752637  0.40045299  0.07668729    -0.78100
C198        C  0.87774711  0.46161843  0.05440082     1.02800
Fe199      Fe  0.85136289  0.03034106  0.87335135     1.65800
Fe200      Fe  0.85708434  0.09817435  0.91187847     1.73200
Fe201      Fe  0.77983887  0.07926054  0.87394023     1.54400
O202        O  0.78746093  0.06113798  0.82976683    -0.81900
O203        O  0.81843687  0.09809231  0.94502683    -0.80200
O204        O  0.84445088  0.04251320  0.82786458    -0.84400
O205        O  0.80193184  0.00513001  0.87225777    -0.79200
O206        O  0.79708745  0.12127915  0.85643850    -0.81000
O207        O  0.88298261  0.06143119  0.93640248    -0.83700
C208        C  0.76939974  0.01006525  0.88147977     0.97000
C209        C  0.81518399  0.05162676  0.81475774     1.04500
O210        O  0.82901956  0.06913941  0.88667139    -1.12700
O211        O  0.89751671  0.10033146  0.87929972    -0.75200
O212        O  0.90433617  0.04944032  0.87203750    -0.78600
O213        O  0.75876514  0.03711761  0.88950799    -0.79300
C214        C  0.91723987  0.07726696  0.87190806     0.95900
O215        O  0.85822407  0.01747859  0.91867011    -0.77300
O216        O  0.83269227  0.13899246  0.89360395    -0.82500
C217        C  0.78482883  0.10385851  0.94207980     0.98500
C218        C  0.80991418  0.14382578  0.87182929     1.04500
O219        O  0.76739994  0.09956558  0.91680382    -0.78100
C220        C  0.87459867  0.03254730  0.93985231     1.02800
Fe221      Fe  0.13958108  0.47038559  0.11646848     1.65800
Fe222      Fe  0.14102024  0.40471948  0.07512243     1.73200
Fe223      Fe  0.21589756  0.42678284  0.11468314     1.54400
O224        O  0.23175552  0.47027951  0.10045547    -0.81900
O225        O  0.16956673  0.36565925  0.09211774    -0.80200
O226        O  0.18605303  0.49888704  0.11869674    -0.84400
O227        O  0.14752966  0.45700737  0.16144038    -0.79200
O228        O  0.23052788  0.41032591  0.07117945    -0.81000
O229        O  0.10010152  0.39730412  0.10670081    -0.83700
C230        C  0.17739650  0.44952071  0.17452359     0.97000
C231        C  0.21866796  0.49610918  0.10907322     1.04500
O232        O  0.16563321  0.43378089  0.10238661    -1.12700
O233        O  0.11074007  0.43971915  0.05270891    -0.75200
O234        O  0.13203080  0.48433939  0.07139442    -0.78600
O235        O  0.20605040  0.44199183  0.15958272    -0.79300
C236        C  0.11742412  0.46881474  0.04961631     0.95900
O237        O  0.08905308  0.44732800  0.11677108    -0.77300
O238        O  0.17992316  0.41133196  0.04228636    -0.82500
C239        C  0.19260240  0.36052180  0.11373321     0.98500
C240        C  0.21406940  0.40840726  0.04525999     1.04500
O241        O  0.20499497  0.38254924  0.12991819    -0.78100
C242        C  0.07858500  0.41882996  0.11523489     1.02800
Fe243      Fe  0.14252342  0.03506774  0.86910958     1.65800
Fe244      Fe  0.13626409  0.10382570  0.90688283     1.73200
Fe245      Fe  0.21616826  0.08402428  0.87151404     1.54400
O246        O  0.23626283  0.03920604  0.87743510    -0.81900
O247        O  0.15478603  0.14447564  0.88532305    -0.80200
O248        O  0.18909705  0.00801839  0.86996814    -0.84400
O249        O  0.15259303  0.04724065  0.82385867    -0.79200
O250        O  0.23042324  0.09336294  0.91673788    -0.81000
O251        O  0.09174986  0.10315869  0.87734593    -0.83700
C252        C  0.17831215  0.06252909  0.81076732     0.97000
C253        C  0.22290423  0.01224987  0.87358157     1.04500
O254        O  0.16526680  0.07446344  0.88243596    -1.12700
O255        O  0.11481106  0.06773327  0.93385550    -0.75200
O256        O  0.13250575  0.02209851  0.91431205    -0.78600
O257        O  0.20388779  0.07600940  0.82563540    -0.79300
C258        C  0.11924529  0.03824631  0.93626063     0.95900
O259        O  0.09028737  0.05304645  0.86542998    -0.77300
O260        O  0.17768540  0.10761848  0.93833501    -0.82500
C261        C  0.18452719  0.15145806  0.87196581     0.98500
C262        C  0.21204262  0.10360311  0.93941218     1.04500
O263        O  0.20769573  0.13104861  0.86416531    -0.78100
C264        C  0.07468468  0.07936992  0.86741566     1.02800
Fe265      Fe  0.35476386  0.21973634  0.12146368     1.65800
Fe266      Fe  0.35683408  0.15426962  0.07891412     1.73200
Fe267      Fe  0.27999224  0.17411144  0.11725113     1.54400
O268        O  0.28953038  0.18776858  0.16280559    -0.81900
O269        O  0.31740827  0.15675629  0.04540894    -0.80200
O270        O  0.34743304  0.20423211  0.16588490    -0.84400
O271        O  0.30746825  0.24695065  0.12477609    -0.79200
O272        O  0.29140935  0.12904091  0.13075113    -0.81000
O273        O  0.38358520  0.19157575  0.05684161    -0.83700
C274        C  0.27500626  0.24441593  0.11464325     0.97000
C275        C  0.31780849  0.19521141  0.17841522     1.04500
O276        O  0.33022293  0.18252114  0.10583164    -1.12700
O277        O  0.39876879  0.14925555  0.11059876    -0.75200
O278        O  0.40677303  0.19938817  0.12101663    -0.78600
O279        O  0.26273561  0.21851567  0.10493984    -0.79300
C280        C  0.41924101  0.17158471  0.11902830     0.95900
O281        O  0.36165347  0.23561208  0.07701006    -0.77300
O282        O  0.33136756  0.11353071  0.09558163    -0.82500
C283        C  0.28314371  0.15326825  0.04793343     0.98500
C284        C  0.30648433  0.10758784  0.11531800     1.04500
O285        O  0.26611479  0.15809633  0.07312844    -0.78100
C286        C  0.37649374  0.22087857  0.05496692     1.02800
Fe287      Fe  0.34925967  0.28380695  0.87088527     1.65800
Fe288      Fe  0.35547221  0.35006756  0.91094108     1.73200
Fe289      Fe  0.27915116  0.33457666  0.87006473     1.54400
O290        O  0.28936999  0.31845397  0.82540428    -0.81900
O291        O  0.31528091  0.34864730  0.94294909    -0.80200
O292        O  0.34525807  0.29731559  0.82580394    -0.84400
O293        O  0.29969447  0.25976597  0.86728136    -0.79200
O294        O  0.29703905  0.37762871  0.85553423    -0.81000
O295        O  0.38046884  0.31225085  0.93411365    -0.83700
C296        C  0.26691709  0.26515924  0.87530628     0.97000
C297        C  0.31778838  0.30836883  0.81154725     1.04500
O298        O  0.32752100  0.32284481  0.88400369    -1.12700
O299        O  0.39733572  0.35272704  0.87956092    -0.75200
O300        O  0.40245515  0.30170285  0.87218864    -0.78600
O301        O  0.25630951  0.29225038  0.88308950    -0.79300
C302        C  0.41656872  0.32904429  0.87296930     0.95900
O303        O  0.35341051  0.26964950  0.91595436    -0.77300
O304        O  0.33245015  0.39185395  0.89413386    -0.82500
C305        C  0.28171496  0.35476603  0.93933050     0.98500
C306        C  0.30974080  0.39875027  0.87291596     1.04500
O307        O  0.26527436  0.35287054  0.91332483    -0.78100
C308        C  0.37132810  0.28347323  0.93690113     1.02800
Fe309      Fe  0.64671273  0.21351278  0.12615133     1.65800
Fe310      Fe  0.63725394  0.14989974  0.08224013     1.73200
Fe311      Fe  0.71642574  0.16216403  0.12138415     1.54400
O312        O  0.73887520  0.20573472  0.11122107    -0.81900
O313        O  0.65977888  0.10667643  0.09613658    -0.80200
O314        O  0.69641871  0.23724930  0.12990805    -0.84400
O315        O  0.65271779  0.19716452  0.17058238    -0.79200
O316        O  0.72800479  0.14771557  0.07611302    -0.81000
O317        O  0.59541774  0.14631525  0.11396921    -0.83700
C318        C  0.68093709  0.18500061  0.18305495     0.97000
C319        C  0.72880956  0.23247573  0.12061000     1.04500
O320        O  0.66708293  0.17483016  0.11022410    -1.12700
O321        O  0.61314390  0.18952916  0.06157749    -0.75200
O322        O  0.64164127  0.23043507  0.08167237    -0.78600
O323        O  0.70812142  0.17467251  0.16765038    -0.79300
C324        C  0.62439467  0.21780769  0.05954435     0.95900
O325        O  0.59296311  0.19672970  0.12531009    -0.77300
O326        O  0.67612200  0.15229584  0.04907437    -0.82500
C327        C  0.68457744  0.09800264  0.11505433     0.98500
C328        C  0.70975427  0.14594547  0.05090302     1.04500
O329        O  0.70054474  0.11716874  0.13275846    -0.78100
C330        C  0.57760282  0.17007258  0.12315658     1.02800
Fe331      Fe  0.64247673  0.28113107  0.87268135     1.65800
Fe332      Fe  0.63776322  0.34813669  0.91252614     1.73200
Fe333      Fe  0.71675862  0.32822724  0.87499101     1.54400
O334        O  0.73677020  0.28333015  0.88228007    -0.81900
O335        O  0.65796761  0.38944145  0.89223920    -0.80200
O336        O  0.68921745  0.25499048  0.86975040    -0.84400
O337        O  0.64906596  0.29546688  0.82757370    -0.79200
O338        O  0.73132830  0.33935269  0.91991198    -0.85800
O339        O  0.59300964  0.34899412  0.88302529    -0.83700
C340        C  0.67661350  0.30786772  0.81433332     0.97000
C341        C  0.72295770  0.25735207  0.87470318     1.04500
O342        O  0.66600219  0.31955586  0.88662893    -1.12700
O343        O  0.61614267  0.31066522  0.93845684    -0.75200
O344        O  0.63660354  0.26637302  0.91766203    -0.78600
O345        O  0.70448942  0.31838249  0.82887445    -0.79300
C346        C  0.62305987  0.28128012  0.94019430     0.95900
O347        O  0.59004567  0.29867813  0.87279854    -0.77300
O348        O  0.67888513  0.35036179  0.94406650    -0.82500
C349        C  0.68647184  0.39589644  0.87657205     0.98500
C350        C  0.71337483  0.34803726  0.94351770     1.04500
O351        O  0.70757857  0.37484033  0.86647732    -0.78100
C352        C  0.57494677  0.32519211  0.87441005     1.02800
C353        C  0.61215592  0.21800626  0.00293126    -0.06000
C354        C  0.61850644  0.23556841  0.02988250     0.00000
C355        C  0.62144740  0.26877260  0.02709013    -0.08600
C356        C  0.62048527  0.28254985  0.99741444    -0.06000
C357        C  0.61728706  0.26467744  0.97036369    -0.00100
C358        C  0.61161274  0.23179594  0.97322852    -0.08500
C359        C  0.60568417  0.21086383  0.94535534     0.61900
H360        H  0.60958226  0.19279828  0.00502611     0.12500
H361        H  0.62453927  0.30759712  0.99510086     0.12600
C362        C  0.62672988  0.28999712  0.05482733     0.62100
F363        F  0.59318990  0.18140588  0.95387224    -0.23100
F364        F  0.63823955  0.20697826  0.92974193    -0.20400
F365        F  0.57992689  0.22405996  0.92575773    -0.20100
F366        F  0.66168153  0.28630233  0.06649805    -0.20100
F367        F  0.60137418  0.28281133  0.07741406    -0.20500
F368        F  0.62224687  0.32134112  0.04710466    -0.23100
C369        C  0.47489840  0.30647988  0.85478424    -0.06000
C370        C  0.45690223  0.33212004  0.86812001     0.00000
C371        C  0.47831987  0.35729143  0.87980736    -0.08600
C372        C  0.51671025  0.35487494  0.87883530    -0.06000
C373        C  0.53465255  0.32777384  0.86837544    -0.00100
C374        C  0.51311494  0.30313478  0.85547445    -0.08500
C375        C  0.52922357  0.27240826  0.84388752     0.61900
H376        H  0.45841165  0.28773781  0.84543425     0.12500
H377        H  0.53308620  0.37361729  0.88829033     0.12600
C378        C  0.46140360  0.38592511  0.89492656     0.62100
F379        F  0.50342832  0.25397543  0.82919682    -0.23100
F380        F  0.54282395  0.25514886  0.86854028    -0.20400
F381        F  0.55670531  0.27828910  0.82285909    -0.20100
F382        F  0.44117160  0.37677519  0.92038446    -0.20100
F383        F  0.43925754  0.40152111  0.87392603    -0.20500
F384        F  0.48752206  0.40698287  0.90504365    -0.23100
C385        C  0.47785101  0.18904968  0.14258998    -0.06000
C386        C  0.45920854  0.16631124  0.12518369     0.00000
C387        C  0.47995052  0.14178845  0.11152728    -0.08600
C388        C  0.51844026  0.14287606  0.11347721    -0.06000
C389        C  0.53714256  0.16743138  0.12826387    -0.00100
C390        C  0.51627812  0.19007424  0.14459926    -0.08500
C391        C  0.53386000  0.21579958  0.16372067     0.61900
H392        H  0.46198410  0.20716946  0.15369987     0.12500
H393        H  0.53436621  0.12525193  0.10172423     0.12600
C394        C  0.46219054  0.11524147  0.09364487     0.62100
F395        F  0.50882786  0.23022899  0.18287299    -0.23100
F396        F  0.54841204  0.23856998  0.14448229    -0.20400
F397        F  0.56106623  0.20329094  0.18228950    -0.20100
F398        F  0.44314634  0.12723163  0.06856022    -0.20100
F399        F  0.43870415  0.09880626  0.11277344    -0.20500
F400        F  0.48761621  0.09412778  0.08253324    -0.23100
C401        C  0.38727575  0.28402598  0.99272242    -0.06000
C402        C  0.38042989  0.26626379  0.96604156     0.00000
C403        C  0.37997140  0.23299213  0.96860317    -0.08600
C404        C  0.38133033  0.21928182  0.99816561    -0.06000
C405        C  0.38341529  0.23734832  0.02512697    -0.00100
C406        C  0.38873648  0.27022995  0.02233115    -0.08500
C407        C  0.39498878  0.29110651  0.05014483     0.61900
H408        H  0.38914003  0.30928989  0.99059001     0.12500
H409        H  0.37826867  0.19410671  0.00038182     0.12600
C410        C  0.37725668  0.21156902  0.94074327     0.62100
F411        F  0.40869953  0.32013294  0.04151729    -0.23100
F412        F  0.41998754  0.27736187  0.07008700    -0.20400
F413        F  0.36235844  0.29589679  0.06538873    -0.20100
F414        F  0.40141414  0.22126430  0.91809715    -0.20100
F415        F  0.34200817  0.21189751  0.92919398    -0.20500
F416        F  0.38589253  0.18083387  0.94832846    -0.23100
C417        C  0.27566117  0.48199697  0.89077246    -0.06000
C418        C  0.24754624  0.48491165  0.86881979     0.00000
C419        C  0.24414199  0.46176995  0.84554724    -0.08600
C420        C  0.26793017  0.43590312  0.84621390    -0.06000
C421        C  0.29388879  0.43118637  0.86992248    -0.00100
C422        C  0.29867349  0.45541126  0.89218069    -0.08500
C423        C  0.32691664  0.45342966  0.91793500     0.61900
H424        H  0.27567225  0.99982312  0.91364154     0.12500
H425        H  0.26467043  0.41797877  0.82885191     0.12600
C426        C  0.21518830  0.46357789  0.82024766     0.62100
F427        F  0.32889667  0.48095727  0.93464931    -0.23100
F428        F  0.36107644  0.44795202  0.90554747    -0.20400
F429        F  0.31796663  0.42959692  0.93834936    -0.20100
F430        F  0.21594941  0.49262002  0.80599673    -0.20100
F431        F  0.18102024  0.45854650  0.83280876    -0.20500
F432        F  0.22059749  0.44124453  0.79762798    -0.23100
C433        C  0.19849103  0.20132824  0.89723196    -0.06000
C434        C  0.19591142  0.18471956  0.86931936     0.00000
C435        C  0.21338100  0.19698053  0.84266724    -0.08600
C436        C  0.23545674  0.22380823  0.84557028    -0.06000
C437        C  0.24015485  0.23905083  0.87395825    -0.00100
C438        C  0.22066527  0.22820968  0.90013521    -0.08500
C439        C  0.22538725  0.24354816  0.93142821     0.61900
H440        H  0.18546070  0.19149605  0.91753924     0.12500
H441        H  0.24974238  0.23270280  0.82541679     0.12600
C442        C  0.20980743  0.18277358  0.81076325     0.62100
F443        F  0.20651539  0.22773106  0.95439955    -0.23100
F444        F  0.21246507  0.27399414  0.93018814    -0.20400
F445        F  0.26196880  0.24379464  0.93948976    -0.20100
F446        F  0.18586054  0.15774253  0.80986786    -0.20100
F447        F  0.24371937  0.17274731  0.80091246    -0.20500
F448        F  0.19701145  0.20541374  0.79038747    -0.23100
C449        C  0.21409508  0.13885418  0.98373032    -0.06000
C450        C  0.23074196  0.11406003  0.96787416     0.00000
C451        C  0.26396382  0.10135406  0.97922201    -0.08600
C452        C  0.27983967  0.11497277  0.00556761    -0.06000
C453        C  0.26345112  0.14032925  0.02091135    -0.00100
C454        C  0.22963172  0.15205841  0.01009584    -0.08500
C455        C  0.21127423  0.17987894  0.02469902     0.61900
H456        H  0.18893200  0.14863679  0.97472910     0.12500
H457        H  0.30539581  0.10583904  0.01448367     0.12600
C458        C  0.28230255  0.07336681  0.96426637     0.62100
F459        F  0.18007928  0.18923918  0.00897498    -0.23100
F460        F  0.23556875  0.20445437  0.02417291    -0.20400
F461        F  0.20134382  0.17266022  0.05468352    -0.20100
F462        F  0.29630270  0.08197916  0.93582866    -0.20100
F463        F  0.25726926  0.04938061  0.96053269    -0.20500
F464        F  0.31086008  0.06191265  0.98207207    -0.23100
C465        C  0.24985350  0.36802785  0.02097109    -0.06000
C466        C  0.23419635  0.39783506  0.01818468     0.00000
C467        C  0.23296354  0.41316390  0.98900942    -0.08600
C468        C  0.24679804  0.39725112  0.96330162    -0.06000
C469        C  0.26245167  0.36732297  0.96618559    -0.00100
C470        C  0.26407952  0.35236807  0.99541198    -0.08500
C471        C  0.27945374  0.31957316  0.99955385     0.61900
H472        H  0.24973650  0.35659052  0.04342604     0.12500
H473        H  0.24672833  0.40888238  0.94091126     0.12600
C474        C  0.21925367  0.44643461  0.98374679     0.62100
F475        F  0.27342997  0.30816860  0.02903123    -0.23100
F476        F  0.31665783  0.31970913  0.99482104    -0.20400
F477        F  0.26299215  0.29946418  0.97883147    -0.20100
F478        F  0.20696120  0.46059573  0.01036038    -0.20100
F479        F  0.19100836  0.44618058  0.96247197    -0.20500
F480        F  0.24740326  0.46452495  0.97197289    -0.23100
C481        C  0.10560192  0.98923394  0.96543109    -0.06000
C482        C  0.10981433  0.02198926  0.96596708     0.00000
C483        C  0.10724009  0.03750297  0.99495587    -0.08600
C484        C  0.10949744  0.51839092  0.02051199    -0.06000
C485        C  0.10924137  0.48550158  0.01986534    -0.00100
C486        C  0.10524940  0.47039855  0.99080338    -0.08500
C487        C  0.09885045  0.43531888  0.98783772     0.61900
H488        H  0.10495328  0.97767990  0.94324447     0.12500
H489        H  0.11037023  0.52976353  0.04276935     0.12600
C490        C  0.10499084  0.07298342  0.99794039     0.62100
F491        F  0.09214842  0.42668271  0.95756940    -0.23100
F492        F  0.06872805  0.42664070  0.00508826    -0.20400
F493        F  0.12917009  0.41893399  0.99791902    -0.20100
F494        F  0.07605903  0.08434205  0.98052374    -0.20100
F495        F  0.13722499  0.08652784  0.98816045    -0.20500
F496        F  0.09918016  0.08216630  0.02815216    -0.23100
C497        C  0.20654553  0.30848094  0.09210064    -0.06000
C498        C  0.20888886  0.32864612  0.11750049     0.00000
C499        C  0.23078857  0.31943766  0.14328608    -0.08600
C500        C  0.25216749  0.29205388  0.14109948    -0.06000
C501        C  0.25072435  0.27254100  0.11514958    -0.00100
C502        C  0.22662737  0.28050740  0.09064461    -0.08500
C503        C  0.22248504  0.25991309  0.06272205     0.61900
H504        H  0.18954109  0.31521959  0.07267093     0.12500
H505        H  0.27042463  0.28572893  0.15983409     0.12600
C506        C  0.23160980  0.33776052  0.17327350     0.62100
F507        F  0.20222574  0.27403920  0.03940232    -0.23100
F508        F  0.20466242  0.23282601  0.07160395    -0.20400
F509        F  0.25661899  0.25294978  0.05104702    -0.20100
F510        F  0.19648353  0.34611666  0.18155478    -0.20100
F511        F  0.25282936  0.36436826  0.16985289    -0.20500
F512        F  0.24614749  0.32008573  0.19729732    -0.23100
C513        C  0.24913115  0.03780835  0.14135287    -0.06000
C514        C  0.24448761  0.02204091  0.11326243     0.00000
C515        C  0.26535963  0.03150661  0.08728460    -0.08600
C516        C  0.28767478  0.05834224  0.08968554    -0.06000
C517        C  0.29058588  0.07541215  0.11730929    -0.00100
C518        C  0.27262424  0.06383928  0.14412204    -0.08500
C519        C  0.27896569  0.07807054  0.17577641     0.61900
H520        H  0.24874695  0.52045906  0.15868016     0.12500
H521        H  0.30164061  0.06711182  0.06937506     0.12600
C522        C  0.26288312  0.01424229  0.05677286     0.62100
F523        F  0.26759501  0.05805403  0.19916355    -0.23100
F524        F  0.25981542  0.10584164  0.17851234    -0.20400
F525        F  0.31583778  0.08370235  0.18008063    -0.20100
F526        F  0.22697528  0.01343562  0.04685366    -0.20100
F527        F  0.27574769  0.98394609  0.06035548    -0.20500
F528        F  0.28347422  0.02861476  0.03397905    -0.23100
C529        C  0.97538196  0.05817389  0.84912213    -0.06000
C530        C  0.95685673  0.08220879  0.86469795     0.00000
C531        C  0.97741319  0.10840455  0.87542099    -0.08600
C532        C  0.01575988  0.10748016  0.87326646    -0.06000
C533        C  0.03449877  0.08166006  0.86100852    -0.00100
C534        C  0.01374220  0.05749164  0.84665897    -0.08500
C535        C  0.03128606  0.03049241  0.82935358     0.61900
H536        H  0.95957115  0.03890335  0.83993365     0.12500
H537        H  0.03158594  0.12637547  0.88308694     0.12600
C538        C  0.95981786  0.13681006  0.89042840     0.62100
F539        F  0.00610571  0.01464802  0.81133822    -0.23100
F540        F  0.04616114  0.00918965  0.85008648    -0.20400
F541        F  0.05820543  0.04173840  0.80986208    -0.20100
F542        F  0.94168598  0.12779644  0.91703388    -0.20100
F543        F  0.93565968  0.15073361  0.86990128    -0.20500
F544        F  0.98524034  0.15931945  0.89862463    -0.23100
C545        C  0.73163063  0.10317975  0.97642855    -0.06000
C546        C  0.76562657  0.11601720  0.96934151     0.00000
C547        C  0.78062459  0.13990269  0.98837090    -0.08600
C548        C  0.76174687  0.14855014  0.01513776    -0.06000
C549        C  0.72789331  0.13542666  0.02244715    -0.00100
C550        C  0.71204757  0.11262783  0.00253574    -0.08500
C551        C  0.67510198  0.09757565  0.00874328     0.61900
H552        H  0.72064229  0.08535229  0.96128029     0.12500
H553        H  0.77297641  0.16622406  0.03035365     0.12600
C554        C  0.81506135  0.15772311  0.97967382     0.62100
F555        F  0.66747459  0.07370280  0.98818062    -0.23100
F556        F  0.64770067  0.11970938  0.00582216    -0.20400
F557        F  0.67452526  0.08476540  0.03808444    -0.20100
F558        F  0.81257213  0.16758230  0.94930546    -0.20100
F559        F  0.84543419  0.13886339  0.98338787    -0.20500
F560        F  0.81997299  0.18408919  0.99772838    -0.23100
C561        C  0.75762824  0.17542961  0.85398950    -0.06000
C562        C  0.79297314  0.17539362  0.86673796     0.00000
C563        C  0.80702295  0.20397312  0.87835271    -0.08600
C564        C  0.78310289  0.22976034  0.88158794    -0.06000
C565        C  0.74664619  0.22893692  0.87088921    -0.00100
C566        C  0.73447077  0.20156669  0.85508001    -0.08500
C567        C  0.69729593  0.19904276  0.83924445     0.61900
H568        H  0.74711985  0.15393473  0.84425863     0.12500
H569        H  0.79344627  0.25106183  0.89198913     0.12600
C570        C  0.84714019  0.20900575  0.88553022     0.62100
F571        F  0.69380120  0.17170261  0.82240581    -0.23100
F572        F  0.69257341  0.22380220  0.81877302    -0.20400
F573        F  0.66979674  0.19902583  0.86109064    -0.20100
F574        F  0.86895734  0.18638550  0.87222690    -0.20100
F575        F  0.85264314  0.20892968  0.91710770    -0.20500
F576        F  0.85819297  0.23771877  0.87373739    -0.23100
C577        C  0.74666570  0.46392766  0.85330747    -0.06000
C578        C  0.74469478  0.48293801  0.87962134     0.00000
C579        C  0.71737308  0.47634115  0.90204058    -0.08600
C580        C  0.69557970  0.44912548  0.89858238    -0.06000
C581        C  0.69922481  0.42907088  0.87303779    -0.00100
C582        C  0.72331657  0.43814285  0.84892404    -0.08500
C583        C  0.72570626  0.42110806  0.81833311     0.61900
H584        H  0.74930285  0.97767876  0.83206154     0.12500
H585        H  0.67706353  0.44227103  0.91688312     0.12600
C586        C  0.71230298  0.49693476  0.93020780     0.62100
F587        F  0.72704633  0.44270820  0.79434268    -0.23100
F588        F  0.69577132  0.40209194  0.81315399    -0.20400
F589        F  0.75712217  0.40312228  0.81782200    -0.20100
F590        F  0.69987412  0.52620864  0.92110347    -0.20100
F591        F  0.74512473  0.50006425  0.94578337    -0.20500
F592        F  0.68703749  0.48448815  0.95059732    -0.23100
C593        C  0.98053767  0.38982648  0.10705993    -0.06000
C594        C  0.96218415  0.41148225  0.12577481     0.00000
C595        C  0.98297095  0.43093292  0.14568001    -0.08600
C596        C  0.02127204  0.43084344  0.14306560    -0.06000
C597        C  0.03950010  0.41165019  0.12181495    -0.00100
C598        C  0.01890441  0.38941438  0.10465578    -0.08500
C599        C  0.03668079  0.36652159  0.08248616     0.61900
H600        H  0.96439706  0.37454622  0.09256318     0.12500
H601        H  0.03725682  0.44703101  0.15674212     0.12600
C602        C  0.96519588  0.45197601  0.16947752     0.62100
F603        F  0.01126164  0.34759939  0.06795871    -0.23100
F604        F  0.06046092  0.34711679  0.09853115    -0.20400
F605        F  0.05547345  0.38277648  0.05980905    -0.20100
F606        F  0.93809523  0.43566837  0.18492577    -0.20100
F607        F  0.95034305  0.47813841  0.15519346    -0.20500
F608        F  0.99022768  0.46213943  0.19126048    -0.23100
C609        C  0.88999249  0.48522788  0.96923463    -0.06000
C610        C  0.88346887  0.01510949  0.96913047     0.00000
C611        C  0.88630224  0.02926676  0.99873730    -0.08600
C612        C  0.88621882  0.00982100  0.02514328    -0.06000
C613        C  0.88604129  0.47973094  0.02526941    -0.00100
C614        C  0.89179818  0.46590100  0.99583421    -0.08500
C615        C  0.89935092  0.43111033  0.99199533     0.61900
H616        H  0.89205656  0.47459498  0.94650844     0.12500
H617        H  0.88677093  0.02047050  0.04791357     0.12600
C618        C  0.88658821  0.06451978  0.00318400     0.62100
F619        F  0.90735242  0.42361043  0.96168504    -0.23100
F620        F  0.86914032  0.41381971  0.00070903    -0.20400
F621        F  0.92915532  0.42255775  0.00988987    -0.20100
F622        F  0.85381350  0.07671953  0.99308169    -0.20100
F623        F  0.91514191  0.07789125  0.98696263    -0.20500
F624        F  0.89076081  0.07274199  0.03389451    -0.23100
C625        C  0.77843235  0.35508681  0.01133778    -0.06000
C626        C  0.76503400  0.38262591  0.02497134     0.00000
C627        C  0.73498389  0.39855979  0.01188871    -0.08600
C628        C  0.71932141  0.38626692  0.98504938    -0.06000
C629        C  0.73268197  0.35872512  0.97128690    -0.00100
C630        C  0.76265120  0.34264896  0.98455480    -0.08500
C631        C  0.77724402  0.31225553  0.97123355     0.61900
H632        H  0.80148688  0.34330949  0.02201798     0.12500
H633        H  0.69647673  0.39832699  0.97435830     0.12600
C634        C  0.72021486  0.42869396  0.02560886     0.62100
F635        F  0.80399554  0.29903691  0.98986200    -0.23100
F636        F  0.79246038  0.31784157  0.94253857    -0.20400
F637        F  0.74916531  0.29076110  0.96843263    -0.20100
F638        F  0.74811060  0.45033146  0.02865154    -0.20100
F639        F  0.70524849  0.42255125  0.05429875    -0.20500
F640        F  0.69328739  0.44199951  0.00722295    -0.23100
C641        C  0.71650550  0.01397841  0.13163402    -0.06000
C642        C  0.74478224  0.01139619  0.10987038     0.00000
C643        C  0.74949805  0.03560243  0.08769790    -0.08600
C644        C  0.72733251  0.06251677  0.08951632    -0.06000
C645        C  0.70049775  0.06605512  0.11241581    -0.00100
C646        C  0.69425635  0.04099192  0.13342215    -0.08500
C647        C  0.66511317  0.04144941  0.15815602     0.61900
H648        H  0.70319760  0.48905044  0.11752588     0.12500
H649        H  0.73207986  0.08191008  0.07368469     0.12600
C650        C  0.77778500  0.03307834  0.06222599     0.62100
F651        F  0.64208390  0.01608538  0.15410715    -0.23100
F652        F  0.64416116  0.06839850  0.15742787    -0.20400
F653        F  0.68150868  0.03897576  0.18689661    -0.20100
F654        F  0.77281108  0.00542104  0.04628117    -0.20100
F655        F  0.81249398  0.03346623  0.07479449    -0.20500
F656        F  0.77514920  0.05763915  0.04121806    -0.23100
C657        C  0.79854688  0.29585420  0.09829118    -0.06000
C658        C  0.79701902  0.31572739  0.12416758     0.00000
C659        C  0.77718080  0.30531275  0.15053174    -0.08600
C660        C  0.75614654  0.27763504  0.14851545    -0.06000
C661        C  0.75537302  0.25917026  0.12172540    -0.00100
C662        C  0.77833324  0.26761785  0.09666521    -0.08500
C663        C  0.77996813  0.24791475  0.06761423     0.61900
H664        H  0.81401656  0.30357031  0.07837315     0.12500
H665        H  0.73938429  0.27050591  0.16791350     0.12600
C666        C  0.77780992  0.32309111  0.18082845     0.62100
F667        F  0.80226675  0.26123885  0.04537309    -0.23100
F668        F  0.74533944  0.24485786  0.05513891    -0.20400
F669        F  0.79382427  0.21854381  0.07464611    -0.20100
F670        F  0.75447112  0.34853642  0.17917428    -0.20100
F671        F  0.81286673  0.33332722  0.18719594    -0.20500
F672        F  0.76680652  0.30422064  0.20525207    -0.23100
C673        C  0.65149247  0.32155358  0.73011296    -0.06000
C674        C  0.67965355  0.30515733  0.71537242     0.00000
C675        C  0.70723229  0.29034716  0.73332041    -0.08600
C676        C  0.70568623  0.29269929  0.76564205    -0.06000
C677        C  0.67720556  0.30859741  0.78032717    -0.00100
C678        C  0.64979639  0.32365529  0.76247931    -0.08500
C679        C  0.61942195  0.34235606  0.77746986     0.61900
H680        H  0.63063546  0.33263791  0.71594332     0.12500
H681        H  0.72622104  0.28127702  0.77988195     0.12600
C682        C  0.73682372  0.27057714  0.71863012     0.62100
F683        F  0.59829979  0.35812441  0.75579675    -0.23100
F684        F  0.63416426  0.36428982  0.79729452    -0.20400
F685        F  0.59681271  0.32253150  0.79392522    -0.20100
F686        F  0.75939773  0.28926021  0.70081219    -0.20100
F687        F  0.72084658  0.24803541  0.70030727    -0.20500
F688        F  0.75821336  0.25535774  0.74050305    -0.23100
C689        C  0.66046950  0.16702441  0.26715470    -0.06000
C690        C  0.68433472  0.18784661  0.28195499     0.00000
C691        C  0.70827446  0.20670340  0.26420042    -0.08600
C692        C  0.70702151  0.20449761  0.23180023    -0.06000
C693        C  0.68272114  0.18407186  0.21703231    -0.00100
C694        C  0.65959230  0.16448603  0.23477717    -0.08500
C695        C  0.63506968  0.14041200  0.21950597     0.61900
H696        H  0.64255502  0.15269871  0.28124698     0.12500
H697        H  0.72449960  0.21917625  0.21766140     0.12600
C698        C  0.73421684  0.22956295  0.27947129     0.62100
F699        F  0.61643281  0.12241322  0.24101948    -0.23100
F700        F  0.65604741  0.12053850  0.20172356    -0.20400
F701        F  0.60963652  0.15521351  0.20081935    -0.20100
F702        F  0.75916785  0.21314339  0.29732997    -0.20100
F703        F  0.71476527  0.24991113  0.29796876    -0.20500
F704        F  0.75336379  0.24723612  0.25802001    -0.23100
C705        C  0.64959732  0.22574868  0.48603777    -0.06000
C706        C  0.61726778  0.22734041  0.46885720     0.00000
C707        C  0.58576699  0.24104186  0.48180869    -0.08600
C708        C  0.58829321  0.25416827  0.51161372    -0.06000
C709        C  0.62104172  0.25311494  0.52870640    -0.00100
C710        C  0.65215018  0.23814310  0.51588699    -0.08500
C711        C  0.68850636  0.23637451  0.53286491     0.61900
H712        H  0.67316720  0.21471786  0.47559850     0.12500
H713        H  0.56487815  0.26582719  0.52161159     0.12600
C714        C  0.55033454  0.24264758  0.46371674     0.62100
F715        F  0.68513136  0.21763588  0.55889307    -0.23100
F716        F  0.69936657  0.26614116  0.54136058    -0.20400
F717        F  0.71580337  0.22369592  0.51472435    -0.20100
F718        F  0.53970546  0.21280641  0.45518855    -0.20100
F719        F  0.55532425  0.26074849  0.43744002    -0.20500
F720        F  0.52244353  0.25574715  0.48088042    -0.23100
C721        C  0.34841933  0.31527611  0.72787546    -0.06000
C722        C  0.31581727  0.30827411  0.71229038     0.00000
C723        C  0.28365088  0.30194317  0.72948928    -0.08600
C724        C  0.28573224  0.30213788  0.76186994    -0.06000
C725        C  0.31839908  0.30883319  0.77743603    -0.00100
C726        C  0.35028833  0.31617686  0.76026063    -0.08500
C727        C  0.38590445  0.32583681  0.77571034     0.61900
H728        H  0.37257300  0.32030865  0.71433562     0.12500
H729        H  0.26165602  0.29691531  0.77542896     0.12600
C730        C  0.24729900  0.29463495  0.71408530     0.62100
F731        F  0.41074512  0.33764006  0.75457774    -0.23100
F732        F  0.40178182  0.30019842  0.79016075    -0.20400
F733        F  0.37934741  0.34900572  0.79723347    -0.20100
F734        F  0.25166064  0.27108008  0.69262819    -0.20100
F735        F  0.23395897  0.32130301  0.69960272    -0.20500
F736        F  0.22138269  0.28467029  0.73519897    -0.23100
C737        C  0.47590191  0.30952306  0.64275654    -0.06000
C738        C  0.45839744  0.33044248  0.62221731     0.00000
C739        C  0.48020964  0.35133196  0.60432833    -0.08600
C740        C  0.51848384  0.34834441  0.60570575    -0.06000
C741        C  0.53589818  0.32566507  0.62433304    -0.00100
C742        C  0.51427248  0.30704360  0.64454434    -0.08500
C743        C  0.53122271  0.28489910  0.66821721     0.61900
H744        H  0.45912707  0.29421650  0.65686165     0.12500
H745        H  0.53519537  0.36294096  0.59087700     0.12600
C746        C  0.46368018  0.37592459  0.58280791     0.62100
F747        F  0.50578156  0.27458030  0.68958425    -0.23100
F748        F  0.55865039  0.30019545  0.68419068    -0.20400
F749        F  0.54546107  0.25884172  0.65373265    -0.20100
F750        F  0.44321514  0.39690268  0.59977482    -0.20100
F751        F  0.44178641  0.36169716  0.56092079    -0.20500
F752        F  0.49010124  0.39294249  0.56720680    -0.23100
C753        C  0.28843046  0.19896297  0.26270227    -0.06000
C754        C  0.32061580  0.18920329  0.27761302     0.00000
C755        C  0.35096011  0.17962063  0.25978099    -0.08600
C756        C  0.34849641  0.18175268  0.22745656    -0.06000
C757        C  0.31681345  0.19271400  0.21252186    -0.00100
C758        C  0.28601907  0.20137153  0.23037111    -0.08500
C759        C  0.25123255  0.21418867  0.21576286     0.61900
H760        H  0.26518032  0.20522070  0.27671434     0.12500
H761        H  0.37153938  0.17481661  0.21346872     0.12600
C762        C  0.38532206  0.16614704  0.27454228     0.62100
F763        F  0.22714454  0.22539759  0.23767600    -0.23100
F764        F  0.23368495  0.19078368  0.19952011    -0.20400
F765        F  0.25955861  0.23873076  0.19599836    -0.20100
F766        F  0.37612842  0.14275276  0.29541958    -0.20100
F767        F  0.40430743  0.18951978  0.28962789    -0.20500
F768        F  0.40839287  0.15317490  0.25279671    -0.23100
C769        C  0.47913288  0.18469904  0.34785956    -0.06000
C770        C  0.46119671  0.16060605  0.36416565     0.00000
C771        C  0.48244259  0.13520904  0.37608626    -0.08600
C772        C  0.52083464  0.13735340  0.37482906    -0.06000
C773        C  0.53866855  0.16361028  0.36212423    -0.00100
C774        C  0.51742757  0.18648017  0.34616602    -0.08500
C775        C  0.53442544  0.21365471  0.32846951     0.61900
H776        H  0.46291144  0.20333265  0.33761327     0.12500
H777        H  0.53724094  0.11935466  0.38587790     0.12600
C778        C  0.46540786  0.10663511  0.39157065     0.62100
F779        F  0.51003193  0.22653315  0.30742305    -0.23100
F780        F  0.56454879  0.20353675  0.31207233    -0.20400
F781        F  0.54470780  0.23691661  0.34883374    -0.20100
F782        F  0.44168048  0.09214604  0.37124618    -0.20100
F783        F  0.44683588  0.11556774  0.41786317    -0.20500
F784        F  0.49135434  0.08465306  0.40034147    -0.23100
C785        C  0.39166567  0.25694940  0.46874253    -0.06000
C786        C  0.38447190  0.22456631  0.46936523     0.00000
C787        C  0.38258313  0.20936889  0.49876761    -0.08600
C788        C  0.38052667  0.22796691  0.52557548    -0.06000
C789        C  0.38372622  0.26084106  0.52464104    -0.00100
C790        C  0.39342767  0.27508591  0.49589385    -0.08500
C791        C  0.40642044  0.30883457  0.49335413     0.61900
H792        H  0.39568785  0.26818639  0.44650273     0.12500
H793        H  0.37571748  0.21673933  0.54768863     0.12600
C794        C  0.38193824  0.17393567  0.50247297     0.62100
F795        F  0.41925123  0.31588702  0.46405732    -0.23100
F796        F  0.43495048  0.31355120  0.51383340    -0.20400
F797        F  0.37817454  0.32926880  0.49970506    -0.20100
F798        F  0.41164152  0.16089610  0.48762877    -0.20100
F799        F  0.34998180  0.16216983  0.49035035    -0.20500
F800        F  0.38384913  0.16471870  0.53317475    -0.23100
C801        C  0.20652492  0.06534453  0.72627956    -0.06000
C802        C  0.17257832  0.06148568  0.71154862     0.00000
C803        C  0.14021911  0.06102344  0.72964636    -0.08600
C804        C  0.14373784  0.06220260  0.76188737    -0.06000
C805        C  0.17786390  0.06457293  0.77660216    -0.00100
C806        C  0.20991894  0.06748684  0.75842644    -0.08500
C807        C  0.24771767  0.07255015  0.77228800     0.61900
H808        H  0.23094189  0.06638341  0.71226419     0.12500
H809        H  0.11944017  0.06106278  0.77607474     0.12600
C810        C  0.10202535  0.05969662  0.71564462     0.62100
F811        F  0.27480829  0.07269104  0.75004066    -0.23100
F812        F  0.25586631  0.04884308  0.79312707    -0.20400
F813        F  0.24887195  0.10123433  0.78698774    -0.20100
F814        F  0.09620520  0.03072874  0.70234183    -0.20100
F815        F  0.09795493  0.08311592  0.69361316    -0.20500
F816        F  0.07510802  0.06402298  0.73762259    -0.23100
C817        C  0.27530526  0.43783634  0.63945541    -0.06000
C818        C  0.29460607  0.42940328  0.61262308     0.00000
C819        C  0.29359340  0.45049124  0.58682315    -0.08600
C820        C  0.27031916  0.47701872  0.58793086    -0.06000
C821        C  0.24858810  0.48344641  0.61377126    -0.00100
C822        C  0.25279336  0.46464773  0.64064403    -0.08500
C823        C  0.23434589  0.47335893  0.67078065     0.61900
H824        H  0.27693671  0.42249425  0.65944123     0.12500
H825        H  0.27544848  0.99622951  0.58015206     0.12600
C826        C  0.31593392  0.44502915  0.55783754     0.62100
F827        F  0.24531944  0.45409258  0.69495899    -0.23100
F828        F  0.19689116  0.47082669  0.66783182    -0.20400
F829        F  0.24328584  0.50387101  0.67836803    -0.20100
F830        F  0.30512165  0.41759194  0.54373252    -0.20100
F831        F  0.35255907  0.44320266  0.56551432    -0.20500
F832        F  0.31180934  0.46916091  0.53652306    -0.23100
C833        C  0.19264931  0.20141018  0.59987437    -0.06000
C834        C  0.19708562  0.18007382  0.62450466     0.00000
C835        C  0.22223809  0.18746839  0.64839818    -0.08600
C836        C  0.24582928  0.21316477  0.64439186    -0.06000
C837        C  0.24325033  0.23330011  0.61865062    -0.00100
C838        C  0.21509552  0.22812482  0.59657347    -0.08500
C839        C  0.21013514  0.24939752  0.56856060     0.61900
H840        H  0.17328958  0.19569075  0.58179495     0.12500
H841        H  0.26634285  0.21776523  0.66191827     0.12600
C842        C  0.22554925  0.16878393  0.67828577     0.62100
F843        F  0.18431510  0.23783370  0.54818895    -0.23100
F844        F  0.24282095  0.25218405  0.55284390    -0.20400
F845        F  0.19855054  0.27870468  0.57786656    -0.20100
F846        F  0.25811710  0.15234776  0.67844432    -0.20100
F847        F  0.19697098  0.14799164  0.68246329    -0.20500
F848        F  0.22537783  0.18909918  0.70308217    -0.23100
C849        C  0.22162412  0.14189762  0.50929862    -0.06000
C850        C  0.23228268  0.11304279  0.52253593     0.00000
C851        C  0.25945113  0.09465044  0.50829946    -0.08600
C852        C  0.27491440  0.10592912  0.48087092    -0.06000
C853        C  0.26401352  0.13459877  0.46752329    -0.00100
C854        C  0.23724000  0.15320245  0.48190259    -0.08500
C855        C  0.22622416  0.18512416  0.46910667     0.61900
H856        H  0.20092619  0.15568884  0.52081646     0.12500
H857        H  0.29569672  0.09223112  0.46934054     0.12600
C858        C  0.27109498  0.06289256  0.52112762     0.62100
F859        F  0.20191580  0.20032800  0.48832874    -0.23100
F860        F  0.20958158  0.18172637  0.44062451    -0.20400
F861        F  0.25681727  0.20388780  0.46595446    -0.20100
F862        F  0.24089163  0.04365494  0.52411919    -0.20100
F863        F  0.28761570  0.06648416  0.54963849    -0.20500
F864        F  0.29584199  0.04808520  0.50200782    -0.23100
C865        C  0.16726394  0.47050776  0.25907753    -0.06000
C866        C  0.18121935  0.44338705  0.27340113     0.00000
C867        C  0.19448654  0.41842646  0.25503711    -0.08600
C868        C  0.19358852  0.42188729  0.22274190    -0.06000
C869        C  0.17885750  0.44871952  0.20851821    -0.00100
C870        C  0.16561261  0.47362352  0.22682517    -0.08500
C871        C  0.15024257  0.50351904  0.21254341     0.61900
H872        H  0.15733632  0.48932288  0.27350678     0.12500
H873        H  0.20359725  0.40321597  0.20819251     0.12600
C874        C  0.20778577  0.38771282  0.26915288     0.62100
F875        F  0.13847884  0.02478127  0.23792157    -0.23100
F876        F  0.11717105  0.49724013  0.19840689    -0.20400
F877        F  0.17439121  0.51545887  0.19094580    -0.20100
F878        F  0.18167052  0.37595333  0.28912265    -0.20100
F879        F  0.24008241  0.39246363  0.28504420    -0.20500
F880        F  0.21418954  0.36522870  0.24689834    -0.23100
C881        C  0.22056021  0.39201851  0.49285349    -0.06000
C882        C  0.23667993  0.38544476  0.46418807     0.00000
C883        C  0.26698907  0.36472526  0.46298606    -0.08600
C884        C  0.27909386  0.35087505  0.49062766    -0.06000
C885        C  0.26264512  0.35728744  0.51921363    -0.00100
C886        C  0.23217499  0.37778121  0.52035813    -0.08500
C887        C  0.21165241  0.38494606  0.55004703     0.61900
H888        H  0.19804145  0.40836466  0.49351250     0.12500
H889        H  0.30226777  0.33510862  0.49020773     0.12600
C890        C  0.28686907  0.35707132  0.43316399     0.62100
F891        F  0.18301461  0.40564433  0.54521897    -0.23100
F892        F  0.23485146  0.39836055  0.57140624    -0.20400
F893        F  0.19712313  0.35753092  0.56205602    -0.20100
F894        F  0.30154336  0.38419294  0.42065551    -0.20100
F895        F  0.26300536  0.34369883  0.41232379    -0.20500
F896        F  0.31527468  0.33609462  0.43786346    -0.23100
C897        C  0.12082372  0.51750221  0.46110689    -0.06000
C898        C  0.11773498  0.48462880  0.46236241     0.00000
C899        C  0.10966996  0.47029622  0.49140927    -0.08600
C900        C  0.10888512  0.98743512  0.52227079    -0.06000
C901        C  0.11458369  0.02003510  0.52087710    -0.00100
C902        C  0.11597069  0.03484625  0.49131932    -0.08500
C903        C  0.11870250  0.07017472  0.48712946     0.61900
H904        H  0.12516259  0.52852046  0.43883030     0.12500
H905        H  0.10595750  0.97653626  0.54478236     0.12600
C906        C  0.10083099  0.43559212  0.49481829     0.62100
F907        F  0.11889077  0.07905825  0.45629820    -0.23100
F908        F  0.15073806  0.08077423  0.50019010    -0.20400
F909        F  0.08909575  0.08462681  0.50076839    -0.20100
F910        F  0.13055596  0.41767977  0.48646106    -0.20100
F911        F  0.07118463  0.42822012  0.47637357    -0.20500
F912        F  0.09192663  0.42752563  0.52490697    -0.23100
C913        C  0.23054042  0.31343327  0.34651872    -0.06000
C914        C  0.20436102  0.31876091  0.36971583     0.00000
C915        C  0.19931399  0.29494033  0.39267954    -0.08600
C916        C  0.22308336  0.26874254  0.39309220    -0.06000
C917        C  0.25144662  0.26533219  0.37159623    -0.00100
C918        C  0.25412654  0.28738127  0.34699741    -0.08500
C919        C  0.28132133  0.28342489  0.32085509     0.61900
H920        H  0.23378271  0.33081567  0.32837615     0.12500
H921        H  0.22047544  0.25104139  0.41104827     0.12600
C922        C  0.16974321  0.29691446  0.41712022     0.62100
F923        F  0.27508268  0.30447315  0.29690717    -0.23100
F924        F  0.27844902  0.25359642  0.30891638    -0.20400
F925        F  0.31643431  0.28820435  0.33161827    -0.20100
F926        F  0.13629000  0.30230576  0.40312592    -0.20100
F927        F  0.17757157  0.32081500  0.43753168    -0.20500
F928        F  0.16686826  0.26934868  0.43405125    -0.23100
C929        C  0.25110394  0.03093925  0.34524728    -0.06000
C930        C  0.25183160  0.01188717  0.37187269     0.00000
C931        C  0.27798243  0.01825587  0.39530139    -0.08600
C932        C  0.29981745  0.04539516  0.39251201    -0.06000
C933        C  0.29709243  0.06572075  0.36684698    -0.00100
C934        C  0.27453890  0.05684961  0.34170887    -0.08500
C935        C  0.27429249  0.07416002  0.31097098     0.61900
H936        H  0.23180762  0.52854452  0.32568564     0.12500
H937        H  0.31744273  0.05206958  0.41149786     0.12600
C938        C  0.28153972  0.99761844  0.42391361     0.62100
F939        F  0.27386095  0.05279502  0.28703650    -0.23100
F940        F  0.30498182  0.09270542  0.30719990    -0.20400
F941        F  0.24341213  0.09271894  0.30889461    -0.20100
F942        F  0.29407588  0.96825664  0.41568589    -0.20100
F943        F  0.24799465  0.99474184  0.43825478    -0.20500
F944        F  0.30596589  0.00987290  0.44509791    -0.23100
C945        C  0.82502299  0.02236451  0.76666052    -0.06000
C946        C  0.81314481  0.05007168  0.78076417     0.00000
C947        C  0.80131793  0.07570140  0.76226533    -0.08600
C948        C  0.80143067  0.07237288  0.73002071    -0.06000
C949        C  0.81404721  0.04494458  0.71588180    -0.00100
C950        C  0.82579024  0.01927227  0.73437192    -0.08500
C951        C  0.83823225  0.98853262  0.72030655     0.61900
H952        H  0.83397828  0.00311463  0.78129256     0.12500
H953        H  0.79264039  0.09163990  0.71542258     0.12600
C954        C  0.79074459  0.10700756  0.77624650     0.62100
F955        F  0.82839244  0.46396256  0.74372156    -0.23100
F956        F  0.87097086  0.99280263  0.70504981    -0.20400
F957        F  0.79888792  0.48021003  0.70123906    -0.20100
F958        F  0.81891722  0.11771063  0.79470882    -0.20100
F959        F  0.75940430  0.10374987  0.79366863    -0.20500
F960        F  0.78402471  0.12961680  0.75386512    -0.23100
C961        C  0.97244028  0.09772710  0.60683925    -0.06000
C962        C  0.95641797  0.07596670  0.62717767     0.00000
C963        C  0.97914615  0.05811304  0.64719773    -0.08600
C964        C  0.01733416  0.06103596  0.64433376    -0.06000
C965        C  0.03336004  0.08110926  0.62228054    -0.00100
C966        C  0.01048237  0.10048471  0.60367496    -0.08500
C967        C  0.02564325  0.12258042  0.57912673     0.61900
H968        H  0.95470507  0.11140715  0.59189800     0.12500
H969        H  0.03508376  0.04660713  0.65858524     0.12600
C970        C  0.96347122  0.03602554  0.67138451     0.62100
F971        F  0.99824775  0.13723509  0.56227330    -0.23100
F972        F  0.04701607  0.10601608  0.55860634    -0.20400
F973        F  0.04631515  0.14571780  0.59296303    -0.20100
F974        F  0.94956691  0.00957838  0.65731590    -0.20100
F975        F  0.93597704  0.05090593  0.68751894    -0.20500
F976        F  0.98980618  0.02653558  0.69250126    -0.23100
C977        C  0.72599004  0.11151924  0.52709496    -0.06000
C978        C  0.76406613  0.11408375  0.52825859     0.00000
C979        C  0.78239399  0.13216950  0.50520395    -0.08600
C980        C  0.76200446  0.14401307  0.48027985    -0.06000
C981        C  0.72411960  0.14001970  0.47820560    -0.00100
C982        C  0.70528201  0.12489712  0.50305930    -0.08500
C983        C  0.66376666  0.12254524  0.50500619     0.61900
H984        H  0.71239937  0.09864988  0.54537649     0.12500
H985        H  0.77582474  0.15646902  0.46183656     0.12600
C986        C  0.82295907  0.14004645  0.50672722     0.62100
F987        F  0.65241450  0.10749661  0.53175433    -0.23100
F988        F  0.64996857  0.10577662  0.48040075    -0.20400
F989        F  0.64875341  0.15230928  0.50511512    -0.20100
F990        F  0.84361868  0.11345369  0.50164845    -0.20100
F991        F  0.83144709  0.15245798  0.53530393    -0.20500
F992        F  0.83283405  0.16208097  0.48462649    -0.23100
C993        C  0.74228625  0.20490291  0.64531946    -0.06000
C994        C  0.75073432  0.22768162  0.62284856     0.00000
C995        C  0.78290785  0.22338997  0.60492524    -0.08600
C996        C  0.80230206  0.19474765  0.60774526    -0.06000
C997        C  0.79208065  0.17104248  0.62888977    -0.00100
C998        C  0.76329130  0.17770776  0.64989434    -0.08500
C999        C  0.75385696  0.15659388  0.67714964     0.61900
H1000       H  0.71832006  0.20820159  0.65948263     0.12500
H1001       H  0.82503222  0.19024485  0.59248012     0.12600
C1002       C  0.79648447  0.24812029  0.58229172     0.62100
F1003       F  0.73322015  0.17224113  0.69894834    -0.23100
F1004       F  0.78553339  0.14671371  0.69168363    -0.20400
F1005       F  0.73393081  0.13100736  0.66721972    -0.20100
F1006       F  0.80484409  0.27536128  0.59796048    -0.20100
F1007       F  0.77002085  0.25425657  0.56026938    -0.20500
F1008       F  0.82774000  0.23861580  0.56706130    -0.23100
C1009       C  0.73301240  0.46120170  0.64352891    -0.06000
C1010       C  0.73936532  0.47759565  0.61585002     0.00000
C1011       C  0.72078052  0.46805331  0.58869881    -0.08600
C1012       C  0.69952332  0.44034307  0.58962364    -0.06000
C1013       C  0.69545520  0.42257064  0.61696790    -0.00100
C1014       C  0.71022061  0.43463542  0.64484001    -0.08500
C1015       C  0.70317240  0.41944670  0.67607587     0.61900
H1016       H  0.74609048  0.46936436  0.66446023     0.12500
H1017       H  0.68777723  0.43135469  0.56846908     0.12600
C1018       C  0.73253953  0.98259007  0.55644284     0.62100
F1019       F  0.70366216  0.44171217  0.69920760    -0.23100
F1020       F  0.72994984  0.39740784  0.68230982    -0.20400
F1021       F  0.66925351  0.40514823  0.67674663    -0.20100
F1022       F  0.76957541  0.98326714  0.55027890    -0.20100
F1023       F  0.71932646  0.01295259  0.55729403    -0.20500
F1024       F  0.71523220  0.96724543  0.53242366    -0.23100
C1025       C  0.83256195  0.46404442  0.26384273    -0.06000
C1026       C  0.81685151  0.43832810  0.27918007     0.00000
C1027       C  0.80228234  0.41319034  0.26171940    -0.08600
C1028       C  0.80408967  0.41486033  0.22934325    -0.06000
C1029       C  0.82033447  0.44038175  0.21411012    -0.00100
C1030       C  0.83469866  0.46561048  0.23154040    -0.08500
C1031       C  0.85160721  0.49441355  0.21640720     0.61900
H1032       H  0.84345361  0.48304565  0.27755263     0.12500
H1033       H  0.79329317  0.39587305  0.21556155     0.12600
C1034       C  0.78646494  0.38411547  0.27694662     0.62100
F1035       F  0.84009162  0.02291147  0.23696741    -0.23100
F1036       F  0.82825694  0.50635005  0.19406468    -0.20400
F1037       F  0.86952483  0.99594104  0.20061172    -0.20100
F1038       F  0.75423579  0.39151027  0.29175088    -0.20100
F1039       F  0.81125448  0.37230495  0.29808905    -0.20500
F1040       F  0.77904942  0.36075964  0.25575655    -0.23100
C1041       C  0.97889380  0.43483288  0.34772799    -0.06000
C1042       C  0.96106351  0.41500763  0.36905189     0.00000
C1043       C  0.98272019  0.39433962  0.38752912    -0.08600
C1044       C  0.02111358  0.39582158  0.38526571    -0.06000
C1045       C  0.03893760  0.41712895  0.36553045    -0.00100
C1046       C  0.01740998  0.43598958  0.34530140    -0.08500
C1047       C  0.03474256  0.45695601  0.32090475     0.61900
H1048       H  0.96235028  0.45017464  0.33340091     0.12500
H1049       H  0.03771557  0.38124642  0.40028083     0.12600
C1050       C  0.96590340  0.37180534  0.41087119     0.62100
F1051       F  0.00925962  0.46757109  0.29957785    -0.23100
F1052       F  0.06114497  0.44039262  0.30503431    -0.20400
F1053       F  0.05048062  0.48285252  0.33459657    -0.20100
F1054       F  0.94461782  0.34998131  0.39567296    -0.20100
F1055       F  0.94475246  0.38821349  0.43168489    -0.20500
F1056       F  0.99211717  0.35551538  0.42760079    -0.23100
C1057       C  0.89556884  0.97526983  0.48941925    -0.06000
C1058       C  0.88002402  0.48296270  0.46751329     0.00000
C1059       C  0.88162851  0.51602512  0.47108415    -0.08600
C1060       C  0.88023393  0.52856686  0.50112540    -0.06000
C1061       C  0.87634771  0.01548921  0.52527114    -0.00100
C1062       C  0.89626931  0.98784420  0.51943215    -0.08500
C1063       C  0.91812951  0.97177204  0.54481298     0.61900
H1064       H  0.91031322  0.95377065  0.48500988     0.12500
H1065       H  0.87953498  0.55372246  0.50388656     0.12600
C1066       C  0.88494738  0.53826659  0.44366257     0.62100
F1067       F  0.93891152  0.94727062  0.53355803    -0.23100
F1068       F  0.89476713  0.95979907  0.56695741    -0.20400
F1069       F  0.94150640  0.99313253  0.55840765    -0.20100
F1070       F  0.89404574  0.56833091  0.45282622    -0.20100
F1071       F  0.85210041  0.53988240  0.42791116    -0.20500
F1072       F  0.91205878  0.52793003  0.42400079    -0.23100
C1073       C  0.73022705  0.38486610  0.47328154    -0.06000
C1074       C  0.76827822  0.38203481  0.47192826     0.00000
C1075       C  0.78680413  0.36412915  0.49515913    -0.08600
C1076       C  0.76644764  0.35137209  0.51963003    -0.06000
C1077       C  0.72848828  0.35454563  0.52115863    -0.00100
C1078       C  0.70971400  0.37114503  0.49715563    -0.08500
C1079       C  0.66833961  0.37495930  0.49634927     0.61900
H1080       H  0.71651495  0.39790969  0.45514232     0.12500
H1081       H  0.78013549  0.33841598  0.53785838     0.12600
C1082       C  0.82756890  0.35720031  0.49410943     0.62100
F1083       F  0.65682299  0.39378965  0.47201475    -0.23100
F1084       F  0.65638042  0.38870187  0.52334325    -0.20400
F1085       F  0.65196851  0.34596536  0.49274801    -0.20100
F1086       F  0.84717654  0.38449479  0.49843784    -0.20100
F1087       F  0.83650887  0.34410777  0.46599064    -0.20500
F1088       F  0.83823024  0.33618337  0.51695582    -0.23100
C1089       C  0.71956469  0.06059656  0.34984834    -0.06000
C1090       C  0.70158120  0.06819713  0.37752458     0.00000
C1091       C  0.70339691  0.04638599  0.40263097    -0.08600
C1092       C  0.72463839  0.01899885  0.39948873    -0.06000
C1093       C  0.74511626  0.01313130  0.37287801    -0.00100
C1094       C  0.74156700  0.03363995  0.34710015    -0.08500
C1095       C  0.76084907  0.02728916  0.31673071     0.61900
H1096       H  0.71783599  0.07696167  0.33066835     0.12500
H1097       H  0.72539534  0.50225546  0.41949813     0.12600
C1098       C  0.68582375  0.05280166  0.43359934     0.62100
F1099       F  0.74871091  0.04707118  0.29336222    -0.23100
F1100       F  0.75430553  0.99677771  0.30759836    -0.20400
F1101       F  0.79800678  0.03183125  0.32013334    -0.20100
F1102       F  0.64855528  0.05653632  0.42997455    -0.20100
F1103       F  0.70096110  0.07957192  0.44588282    -0.20500
F1104       F  0.69142319  0.02862301  0.45462031    -0.23100
C1105       C  0.77080956  0.27114559  0.35717178    -0.06000
C1106       C  0.74858239  0.26520348  0.38288811     0.00000
C1107       C  0.75048239  0.28542428  0.40855887    -0.08600
C1108       C  0.77436749  0.31132828  0.40735458    -0.06000
C1109       C  0.79551377  0.31815454  0.38103461    -0.00100
C1110       C  0.79428944  0.29728607  0.35568050    -0.08500
C1111       C  0.81697916  0.30126314  0.32674071     0.61900
H1112       H  0.76962149  0.25521838  0.33776173     0.12500
H1113       H  0.77504839  0.32764235  0.42643927     0.12600
C1114       C  0.72635073  0.28016423  0.43653878     0.62100
F1115       F  0.83519135  0.27355383  0.32064738    -0.23100
F1116       F  0.84284048  0.32467218  0.32942253    -0.20400
F1117       F  0.79415275  0.30811413  0.30209231    -0.20100
F1118       F  0.73350073  0.25098422  0.44931129    -0.20100
F1119       F  0.69006422  0.28159531  0.42771614    -0.20500
F1120       F  0.73215427  0.30254902  0.45904482    -0.23100
Fe1121     Fe  0.85171843  0.96490372  0.36870350     1.65800
Fe1122     Fe  0.85567504  0.90320081  0.41613324     1.73200
Fe1123     Fe  0.77983759  0.91576915  0.37378335     1.54400
O1124       O  0.75933260  0.95969964  0.38387098    -0.81900
O1125       O  0.83125630  0.86048608  0.40341609    -0.80200
O1126       O  0.80290201  0.98961513  0.36370424    -0.84400
O1127       O  0.84589783  0.94792427  0.32491308    -0.79200
O1128       O  0.76646328  0.90018099  0.41837944    -0.81000
O1129       O  0.89828479  0.89613997  0.38608974    -0.83700
C1130       C  0.81667036  0.93796686  0.31243894     0.97000
C1131       C  0.77043644  0.98584259  0.37329258     1.04500
O1132       O  0.82904674  0.92758128  0.38566091    -1.12700
O1133       O  0.88146148  0.94229242  0.43530384    -0.75200
O1134       O  0.85644681  0.98332125  0.41224304    -0.78600
O1135       O  0.78893055  0.92901495  0.32793159    -0.79300
C1136       C  0.87089513  0.97076869  0.43587743     0.95900
O1137       O  0.90439133  0.94565702  0.37118079    -0.77300
O1138       O  0.81526731  0.91022913  0.44715968    -0.82500
C1139       C  0.80919408  0.85163394  0.38238031     0.98500
C1140       C  0.78302292  0.90036736  0.44439407     1.04500
O1141       O  0.79566230  0.87076715  0.36292261    -0.78100
C1142       C  0.91785317  0.91836451  0.37574554     1.02800
Fe1143     Fe  0.84810788  0.52329017  0.62450718     1.65800
Fe1144     Fe  0.85421653  0.59074577  0.58503570     1.73200
Fe1145     Fe  0.77694046  0.57357482  0.62355576     1.54400
O1146       O  0.75558218  0.53134166  0.60875302    -0.81900
O1147       O  0.83116205  0.63204206  0.60305788    -0.80200
O1148       O  0.79839805  0.49871149  0.62604457    -0.84400
O1149       O  0.84189103  0.53554434  0.66986362    -0.79200
O1150       O  0.76428387  0.59375626  0.58052122    -0.81000
O1151       O  0.89606644  0.59265395  0.61663934    -0.83700
C1152       C  0.81319741  0.54547714  0.68304372     0.97000
C1153       C  0.76601949  0.50404106  0.61647891     1.04500
O1154       O  0.82623271  0.56268875  0.61126406    -1.12700
O1155       O  0.87924093  0.55381628  0.56119730    -0.75200
O1156       O  0.85386868  0.51013961  0.57916381    -0.78600
O1157       O  0.78551814  0.55604775  0.66822795    -0.79300
C1158       C  0.87026610  0.52509251  0.55790203     0.95900
O1159       O  0.90172160  0.54158066  0.62497510    -0.77300
O1160       O  0.81459155  0.58984353  0.55227926    -0.82500
C1161       C  0.80800424  0.63833813  0.62410462     0.98500
C1162       C  0.78149772  0.59743436  0.55511124     1.04500
O1163       O  0.79284406  0.61664975  0.63944129    -0.78100
C1164       C  0.91551334  0.56905215  0.62382075     1.02800
Fe1165     Fe  0.14301286  0.96565428  0.37013816     1.65800
Fe1166     Fe  0.13802029  0.89912713  0.41159805     1.73200
Fe1167     Fe  0.21422290  0.91580473  0.37040535     1.54400
O1168       O  0.20331434  0.93054690  0.32534664    -0.81900
O1169       O  0.17924197  0.89998846  0.44306452    -0.80200
O1170       O  0.14766674  0.95224557  0.32484476    -0.84400
O1171       O  0.19201694  0.99065408  0.36636576    -0.79200
O1172       O  0.19823008  0.87190015  0.35762937    -0.81000
O1173       O  0.11394487  0.93658255  0.43507322    -0.83700
C1174       C  0.22512960  0.98559911  0.37382744     0.97000
C1175       C  0.17542766  0.94117530  0.31101814     1.04500
O1176       O  0.16535670  0.92669753  0.38394639    -1.12700
O1177       O  0.09454480  0.89657116  0.38147352    -0.75200
O1178       O  0.09005518  0.94737508  0.37132080    -0.78600
O1179       O  0.23618484  0.95861092  0.38166509    -0.79300
C1180       C  0.07583271  0.92021025  0.37304698     0.95900
O1181       O  0.13839872  0.97984181  0.41530920    -0.77300
O1182       O  0.15994107  0.85751761  0.39436660    -0.82500
C1183       C  0.21334124  0.89612696  0.43984036     0.98500
C1184       C  0.18341632  0.85073705  0.37394782     1.04500
O1185       O  0.22950752  0.89949367  0.41402766    -0.78100
C1186       C  0.12253574  0.96539310  0.43733384     1.02800
Fe1187     Fe  0.14171633  0.53317035  0.61558930     1.65800
Fe1188     Fe  0.13627883  0.60314856  0.57868919     1.73200
Fe1189     Fe  0.21504522  0.58162072  0.61568702     1.54400
O1190       O  0.20209465  0.57004271  0.66100752    -0.81900
O1191       O  0.17770451  0.60883646  0.54841629    -0.80200
O1192       O  0.14816574  0.54495515  0.66123845    -0.84400
O1193       O  0.18933384  0.50637956  0.61786908    -0.79200
O1194       O  0.20549861  0.62764478  0.62564752    -0.81000
O1195       O  0.11640893  0.56707156  0.55010308    -0.83700
C1196       C  0.22296010  0.51065491  0.61260187     0.97000
C1197       C  0.17452304  0.55841712  0.67510662     1.04500
O1198       O  0.16461889  0.57293788  0.60336496    -1.12700
O1199       O  0.09141864  0.60140704  0.60739741    -0.75200
O1200       O  0.08846730  0.55053431  0.61632450    -0.78600
O1201       O  0.23549492  0.53754235  0.60667018    -0.79300
C1202       C  0.07339232  0.57732533  0.61505808     0.95900
O1203       O  0.13575214  0.52142566  0.56976944    -0.77300
O1204       O  0.15488826  0.64324685  0.60151198    -0.82500
C1205       C  0.21193104  0.60512805  0.54862463     0.98500
C1206       C  0.18376291  0.64901189  0.61695247     1.04500
O1207       O  0.22996941  0.59452747  0.57154677    -0.78100
C1208       C  0.12310671  0.53777499  0.54738214     1.02800
Fe1209     Fe  0.35346970  0.71658940  0.37174334     1.65800
Fe1210     Fe  0.35639152  0.64749434  0.40953109     1.73200
Fe1211     Fe  0.27946383  0.66863976  0.37025386     1.54400
O1212       O  0.25965293  0.71240842  0.38030453    -0.81900
O1213       O  0.33663160  0.60737978  0.38774730    -0.80200
O1214       O  0.30600475  0.74321209  0.36845066    -0.84400
O1215       O  0.34795154  0.70471583  0.32605805    -0.79200
O1216       O  0.26333657  0.65425451  0.41376069    -0.81000
O1217       O  0.40011395  0.64729590  0.38014863    -0.83700
C1218       C  0.32086979  0.69293567  0.31172291     0.97000
C1219       C  0.27232715  0.73908206  0.37361518     1.04500
O1220       O  0.32936053  0.67737597  0.38388233    -1.12700
O1221       O  0.37821376  0.68366251  0.43704862    -0.75200
O1222       O  0.35880228  0.72914286  0.41746569    -0.78600
O1223       O  0.29274375  0.68179427  0.32534492    -0.79300
C1224       C  0.37209343  0.71303696  0.43972484     0.95900
O1225       O  0.40634426  0.69812700  0.37233193    -0.77300
O1226       O  0.31489953  0.64412918  0.44005481    -0.82500
C1227       C  0.30998060  0.60157381  0.36974135     0.98500
C1228       C  0.28051890  0.64570842  0.43795529     1.04500
O1229       O  0.28974431  0.62304000  0.35891611    -0.78100
C1230       C  0.41974719  0.67066207  0.37358720     1.02800
Fe1231     Fe  0.35192385  0.78217577  0.62184755     1.65800
Fe1232     Fe  0.35694275  0.84927445  0.58110575     1.73200
Fe1233     Fe  0.27963884  0.83115401  0.62037554     1.54400
O1234       O  0.25912214  0.78829507  0.60763405    -0.81900
O1235       O  0.33420054  0.89035686  0.59934877    -0.80200
O1236       O  0.30296498  0.75665757  0.62419565    -0.84400
O1237       O  0.34555936  0.79559493  0.66715908    -0.79200
O1238       O  0.26519842  0.84791372  0.57696295    -0.81000
O1239       O  0.40056200  0.85134090  0.61152095    -0.83700
C1240       C  0.31698188  0.80608710  0.68028777     0.97000
C1241       C  0.27011991  0.76135418  0.61558205     1.04500
O1242       O  0.32933169  0.82109213  0.60788393    -1.12700
O1243       O  0.38109287  0.81218351  0.55682583    -0.75200
O1244       O  0.35819817  0.76820771  0.57657263    -0.78600
O1245       O  0.28926404  0.81599147  0.66531791    -0.79300
C1246       C  0.37328600  0.78316044  0.55443134     0.95900
O1247       O  0.40503017  0.80066572  0.62197565    -0.77300
O1248       O  0.31623099  0.84917469  0.54901185    -0.82500
C1249       C  0.30938097  0.89675485  0.61885635     0.98500
C1250       C  0.28195622  0.85221815  0.55162704     1.04500
O1251       O  0.29377133  0.87529877  0.63427288    -0.78100
C1252       C  0.41949274  0.82779080  0.61977802     1.02800
Fe1253     Fe  0.64407339  0.71625657  0.37202363     1.65800
Fe1254     Fe  0.63540188  0.64932693  0.41242061     1.73200
Fe1255     Fe  0.71589081  0.66685864  0.37791671     1.54400
O1256       O  0.70856453  0.68043221  0.33140593    -0.81900
O1257       O  0.67192956  0.65083333  0.44750014    -0.80200
O1258       O  0.65284574  0.70245072  0.32726882    -0.84400
O1259       O  0.69239034  0.74205694  0.37147073    -0.79200
O1260       O  0.70422543  0.62146194  0.36516667    -0.81000
O1261       O  0.60879094  0.68694235  0.43389395    -0.83700
C1262       C  0.72438784  0.73762353  0.38187362     0.97000
C1263       C  0.68166797  0.69097976  0.31537498     1.04500
O1264       O  0.66543545  0.67712709  0.38710920    -1.12700
O1265       O  0.59583723  0.64688225  0.37862351    -0.75200
O1266       O  0.59126017  0.69798689  0.37023945    -0.78600
O1267       O  0.73562245  0.71068555  0.38988969    -0.79300
C1268       C  0.57722968  0.67074377  0.37059703     0.95900
O1269       O  0.63663857  0.73011869  0.41695607    -0.77300
O1270       O  0.65998673  0.60737677  0.39715685    -0.82500
C1271       C  0.70614372  0.64779403  0.44781983     0.98500
C1272       C  0.68656734  0.60036499  0.37950867     1.04500
O1273       O  0.72563275  0.65176069  0.42353308    -0.78100
C1274       C  0.62032566  0.71480592  0.43802837     1.02800
Fe1275     Fe  0.64635986  0.77623136  0.62571059     1.65800
Fe1276     Fe  0.63818585  0.83941475  0.58040984     1.73200
Fe1277     Fe  0.71759352  0.82532122  0.61841974     1.54400
O1278       O  0.71112168  0.81169766  0.66453938    -0.81900
O1279       O  0.67656233  0.83615945  0.54699896    -0.80200
O1280       O  0.65385031  0.79380590  0.66920762    -0.84400
O1281       O  0.69616419  0.75230252  0.62924190    -0.79200
O1282       O  0.70283077  0.86983492  0.63094304    -0.81000
O1283       O  0.61346851  0.80011511  0.56011914    -0.83700
C1284       C  0.72842843  0.75579353  0.61880384     0.97000
C1285       C  0.68346186  0.80412410  0.68082499     1.04500
O1286       O  0.66755514  0.81396986  0.60835487    -1.12700
O1287       O  0.59679710  0.84388096  0.61226376    -0.75200
O1288       O  0.59264707  0.79382894  0.62515320    -0.78600
O1289       O  0.73835466  0.78165740  0.60693434    -0.79300
C1290       C  0.57818390  0.82087297  0.62227169     0.95900
O1291       O  0.64006598  0.75862911  0.58195891    -0.77300
O1292       O  0.66144891  0.88202773  0.59504543    -0.82500
C1293       C  0.70964263  0.84404695  0.54870103     0.98500
C1294       C  0.68551971  0.88995065  0.61493438     1.04500
O1295       O  0.72798728  0.84180064  0.57376674    -0.78100
C1296       C  0.62506658  0.77191263  0.55883228     1.02800
Fe1297     Fe  0.85135216  0.96286234  0.11968819     1.65800
Fe1298     Fe  0.85600897  0.89457331  0.08136955     1.73200
Fe1299     Fe  0.77874476  0.91342703  0.12106109     1.54400
O1300       O  0.78930031  0.92853174  0.16558953    -0.81900
O1301       O  0.81491262  0.89387647  0.04993092    -0.80200
O1302       O  0.84380406  0.95229942  0.16554140    -0.84400
O1303       O  0.80331985  0.98906837  0.11871853    -0.79200
O1304       O  0.79234561  0.86857889  0.13487111    -0.81000
O1305       O  0.88015155  0.93062695  0.05541424    -0.83700
C1306       C  0.77002255  0.98412630  0.11215662     0.97000
C1307       C  0.81623291  0.94108188  0.17950876     1.04500
O1308       O  0.82848448  0.92342284  0.10757026    -1.12700
O1309       O  0.89989111  0.89301201  0.11128719    -0.75200
O1310       O  0.90387406  0.94367799  0.12206387    -0.78600
O1311       O  0.75742001  0.95671897  0.10868216    -0.79300
C1312       C  0.91820650  0.91657587  0.12018663     0.95900
O1313       O  0.85902163  0.97526344  0.07431947    -0.77300
O1314       O  0.83406405  0.85383308  0.10085768    -0.82500
C1315       C  0.78067569  0.89155287  0.05297211     0.98500
C1316       C  0.80936141  0.84732806  0.12050049     1.04500
O1317       O  0.76390340  0.89674897  0.07807874    -0.78100
C1318       C  0.87371506  0.95983526  0.05266769     1.02800
Fe1319     Fe  0.85229885  0.53203422  0.87422408     1.65800
Fe1320     Fe  0.85619684  0.60046547  0.91213283     1.73200
Fe1321     Fe  0.77866610  0.57928394  0.87499913     1.54400
O1322       O  0.78739095  0.56227081  0.83063588    -0.81900
O1323       O  0.81687377  0.60134051  0.94472902    -0.80200
O1324       O  0.84472396  0.54404559  0.82868798    -0.84400
O1325       O  0.80380281  0.50572727  0.87285249    -0.79200
O1326       O  0.79215924  0.62268465  0.85830409    -0.81000
O1327       O  0.88135831  0.56413766  0.93801472    -0.83700
C1328       C  0.77095591  0.50975529  0.88163381     0.97000
C1329       C  0.81525682  0.55295630  0.81569179     1.04500
O1330       O  0.82875551  0.57069436  0.88722942    -1.12700
O1331       O  0.89799059  0.60245022  0.88066485    -0.75200
O1332       O  0.90494051  0.55172656  0.87285071    -0.78600
O1333       O  0.75967416  0.53636650  0.89013722    -0.79300
C1334       C  0.91782031  0.57953053  0.87309604     0.95900
O1335       O  0.85982643  0.51910030  0.91968451    -0.77300
O1336       O  0.83235291  0.64067782  0.89205073    -0.82500
C1337       C  0.78270205  0.60418271  0.94249476     0.98500
C1338       C  0.80768388  0.64536014  0.87173447     1.04500
O1339       O  0.76495281  0.59810064  0.91787502    -0.78100
C1340       C  0.87474251  0.53483558  0.94119805     1.02800
Fe1341     Fe  0.13844791  0.97074878  0.11828147     1.65800
Fe1342     Fe  0.13892485  0.90451917  0.07715181     1.73200
Fe1343     Fe  0.21337013  0.92474874  0.11849486     1.54400
O1344       O  0.23189923  0.96829394  0.10571322    -0.81900
O1345       O  0.16574060  0.86442356  0.09429639    -0.80200
O1346       O  0.18591873  0.99848447  0.12067839    -0.84400
O1347       O  0.14499917  0.95773324  0.16367386    -0.79200
O1348       O  0.22888941  0.90841803  0.07500850    -0.81000
O1349       O  0.09681342  0.89843699  0.10797381    -0.83700
C1350       C  0.17365764  0.94846889  0.17760337     0.97000
C1351       C  0.21912475  0.99483412  0.11268170     1.04500
O1352       O  0.16379949  0.93329357  0.10479658    -1.12700
O1353       O  0.11032900  0.94025130  0.05408722    -0.75200
O1354       O  0.13162394  0.98479596  0.07300048    -0.78600
O1355       O  0.20224759  0.93941337  0.16339605    -0.79300
C1356       C  0.11678520  0.96942298  0.05122341     0.95900
O1357       O  0.08698803  0.94868124  0.11814883    -0.77300
O1358       O  0.17904555  0.90952077  0.04501921    -0.82500
C1359       C  0.18844661  0.85865819  0.11601195     0.98500
C1360       C  0.21310376  0.90611362  0.04877224     1.04500
O1361       O  0.20052590  0.88036986  0.13279318    -0.78100
C1362       C  0.07563787  0.92043017  0.11606754     1.02800
Fe1363     Fe  0.14262094  0.53620542  0.86731041     1.65800
Fe1364     Fe  0.13782194  0.60379557  0.90634389     1.73200
Fe1365     Fe  0.21673219  0.58390617  0.86942809     1.54400
O1366       O  0.23608472  0.53907286  0.87753933    -0.81900
O1367       O  0.15879326  0.64483257  0.88697395    -0.80200
O1368       O  0.18930817  0.50922228  0.86501302    -0.84400
O1369       O  0.15025688  0.54957528  0.82194947    -0.79200
O1370       O  0.23165248  0.59548472  0.91422684    -0.81000
O1371       O  0.09365251  0.60525057  0.87631446    -0.83700
C1372       C  0.17775355  0.56228765  0.80876045     0.97000
C1373       C  0.22291029  0.51266345  0.87053772     1.04500
O1374       O  0.16606238  0.57495453  0.88086030    -1.12700
O1375       O  0.11463771  0.56712040  0.93179882    -0.75200
O1376       O  0.13552695  0.52228674  0.91275020    -0.78600
O1377       O  0.20461422  0.57375277  0.82372259    -0.79300
C1378       C  0.12120782  0.53792777  0.93460485     0.95900
O1379       O  0.09035752  0.55470818  0.86657968    -0.77300
O1380       O  0.17883570  0.60504730  0.93799661    -0.82500
C1381       C  0.18689170  0.65137948  0.87100302     0.98500
C1382       C  0.21339221  0.60331902  0.93791887     1.04500
O1383       O  0.20740653  0.63045548  0.85991443    -0.78100
C1384       C  0.07552340  0.58145622  0.86777560     1.02800
Fe1385     Fe  0.35242797  0.71902501  0.12078352     1.65800
Fe1386     Fe  0.35592189  0.65434572  0.07772219     1.73200
Fe1387     Fe  0.27924250  0.67182066  0.11735098     1.54400
O1388       O  0.28911851  0.68537999  0.16293115    -0.81900
O1389       O  0.31648242  0.65807807  0.04449793    -0.80200
O1390       O  0.34624183  0.70370762  0.16525659    -0.84400
O1391       O  0.30436424  0.74545565  0.12441924    -0.79200
O1392       O  0.29335818  0.62713571  0.13038275    -0.81000
O1393       O  0.38310725  0.69178819  0.05699852    -0.83700
C1394       C  0.27157981  0.74227563  0.11512445     0.97000
C1395       C  0.31719903  0.69403621  0.17820681     1.04500
O1396       O  0.32881210  0.68159039  0.10532615    -1.12700
O1397       O  0.39729854  0.64863880  0.10954899    -0.75200
O1398       O  0.40470767  0.69889120  0.11991799    -0.78600
O1399       O  0.25966099  0.71602968  0.10581851    -0.79300
C1400       C  0.41748547  0.67111091  0.11801534     0.95900
O1401       O  0.35815645  0.73481857  0.07632078    -0.77300
O1402       O  0.33078204  0.61334422  0.09263924    -0.82500
C1403       C  0.28258186  0.65271073  0.04735744     0.98500
C1404       C  0.30723863  0.60658329  0.11309694     1.04500
O1405       O  0.26569187  0.65578136  0.07296759    -0.78100
C1406       C  0.37451952  0.72065727  0.05475172     1.02800
Fe1407     Fe  0.35230605  0.78526837  0.87160960     1.65800
Fe1408     Fe  0.35725792  0.84996650  0.91435363     1.73200
Fe1409     Fe  0.28140095  0.83494051  0.87322992     1.54400
O1410       O  0.29131866  0.82044400  0.82787873    -0.81900
O1411       O  0.31752308  0.84586071  0.94695323    -0.80200
O1412       O  0.34770032  0.80037168  0.82709015    -0.84400
O1413       O  0.30300956  0.76061899  0.86762495    -0.79200
O1414       O  0.29903715  0.87838896  0.86001741    -0.81000
O1415       O  0.38408125  0.81192150  0.93499680    -0.83700
C1416       C  0.27020152  0.76536505  0.87609369     0.97000
C1417       C  0.31970621  0.81114331  0.81343761     1.04500
O1418       O  0.32988234  0.82332066  0.88647305    -1.12700
O1419       O  0.39833833  0.85491340  0.88242936    -0.75200
O1420       O  0.40494942  0.80428084  0.87285298    -0.78600
O1421       O  0.25932521  0.79204055  0.88488246    -0.79300
C1422       C  0.41797755  0.83200346  0.87411359     0.95900
O1423       O  0.35731059  0.76952391  0.91609685    -0.77300
O1424       O  0.33270261  0.89202506  0.89984404    -0.82500
C1425       C  0.28395676  0.85229980  0.94360966     0.98500
C1426       C  0.31062130  0.89919676  0.87825758     1.04500
O1427       O  0.26772371  0.85150856  0.91739077    -0.78100
C1428       C  0.37500315  0.78314990  0.93730402     1.02800
Fe1429     Fe  0.64428463  0.71392464  0.12317755     1.65800
Fe1430     Fe  0.63608004  0.64787681  0.08225054     1.73200
Fe1431     Fe  0.71401911  0.66296755  0.12199208     1.54400
O1432       O  0.73691545  0.70538467  0.10908729    -0.81900
O1433       O  0.65952574  0.60532683  0.09841348    -0.80200
O1434       O  0.69412229  0.73762434  0.12616687    -0.84400
O1435       O  0.64967770  0.69965539  0.16865434    -0.79200
O1436       O  0.72641045  0.64521996  0.07805105    -0.81000
O1437       O  0.59371617  0.64577013  0.11367479    -0.83700
C1438       C  0.67806988  0.68874510  0.18199158     0.97000
C1439       C  0.72673771  0.73238500  0.11758168     1.04500
O1440       O  0.66511258  0.67482246  0.10915622    -1.12700
O1441       O  0.61196539  0.68627561  0.05900856    -0.75200
O1442       O  0.63914828  0.72869186  0.07779214    -0.78600
O1443       O  0.70579390  0.67872378  0.16718493    -0.79300
C1444       C  0.62218083  0.71482596  0.05614409     0.95900
O1445       O  0.59091640  0.69673883  0.12258694    -0.77300
O1446       O  0.67544770  0.64899697  0.04961197    -0.82500
C1447       C  0.68406473  0.59912535  0.11853627     0.98500
C1448       C  0.70894248  0.64257240  0.05257003     1.04500
O1449       O  0.69574537  0.62004468  0.13657021    -0.78100
C1450       C  0.57575511  0.66994384  0.12164922     1.02800
Fe1451     Fe  0.64154657  0.78276297  0.86956364     1.65800
Fe1452     Fe  0.63589131  0.84685253  0.91325079     1.73200
Fe1453     Fe  0.71496205  0.83044305  0.87484407     1.54400
O1454       O  0.73546421  0.78557757  0.88247404    -0.81900
O1455       O  0.65827255  0.88919590  0.89747129    -0.80200
O1456       O  0.68921217  0.75737715  0.86596260    -0.84400
O1457       O  0.64903182  0.79925060  0.82509663    -0.79200
O1458       O  0.72793837  0.84221345  0.91999087    -0.85800
O1459       O  0.59366590  0.85103011  0.88187738    -0.83700
C1460       C  0.67767828  0.81117075  0.81306818     0.97000
C1461       C  0.72272816  0.75997033  0.87237391     1.04500
O1462       O  0.66453488  0.82032180  0.88579344    -1.12700
O1463       O  0.61158463  0.80813575  0.93547994    -0.75200
O1464       O  0.63510768  0.76556824  0.91400198    -0.78600
O1465       O  0.70516416  0.82037990  0.82874744    -0.79300
C1466       C  0.62016836  0.77908561  0.93679599     0.95900
O1467       O  0.58892618  0.80106401  0.86984867    -0.77300
O1468       O  0.67522315  0.84507436  0.94607060    -0.82500
C1469       C  0.68422985  0.89684931  0.87941706     0.98500
C1470       C  0.70966801  0.84656121  0.94459785     1.04500
O1471       O  0.70310931  0.87666093  0.86524960    -0.78100
C1472       C  0.57501602  0.82817671  0.87191555     1.02800
C1473       C  0.61468178  0.71397316  0.99874693    -0.06000
C1474       C  0.61549452  0.73170342  0.02606932     0.00000
C1475       C  0.61169246  0.76478940  0.02360378    -0.08600
C1476       C  0.61189074  0.77896849  0.99403847    -0.06000
C1477       C  0.61438155  0.76142318  0.96664476    -0.00100
C1478       C  0.61345057  0.72810095  0.96910093    -0.08500
C1479       C  0.61058574  0.70720034  0.94089662     0.61900
H1480       H  0.61643451  0.68868902  0.00066984     0.12500
H1481       H  0.61149257  0.80430165  0.99233929     0.12600
C1482       C  0.60686764  0.78533838  0.05183401     0.62100
F1483       F  0.60212544  0.67657079  0.94894941    -0.23100
F1484       F  0.64340377  0.70683264  0.92521214    -0.20400
F1485       F  0.58317618  0.71810025  0.92152759    -0.20100
F1486       F  0.63973076  0.78834310  0.06731859    -0.20100
F1487       F  0.58110356  0.77225035  0.07136937    -0.20500
F1488       F  0.59487790  0.81511688  0.04383031    -0.23100
C1489       C  0.47531984  0.81297168  0.85045507    -0.06000
C1490       C  0.45772093  0.83638949  0.86762943     0.00000
C1491       C  0.47925365  0.86060820  0.88092448    -0.08600
C1492       C  0.51757787  0.85807930  0.87964196    -0.06000
C1493       C  0.53514976  0.83254789  0.86560346    -0.00100
C1494       C  0.51358803  0.81067180  0.84886732    -0.08500
C1495       C  0.53018837  0.78457317  0.82967950     0.61900
H1496       H  0.45874580  0.79530199  0.83932855     0.12500
H1497       H  0.53414733  0.87527699  0.89142379     0.12600
C1498       C  0.46252776  0.88833998  0.89769045     0.62100
F1499       F  0.50471109  0.77129053  0.81001233    -0.23100
F1500       F  0.54349247  0.76104817  0.84876733    -0.20400
F1501       F  0.55814304  0.79639108  0.81165447    -0.20100
F1502       F  0.44329292  0.87794642  0.92323640    -0.20100
F1503       F  0.43946348  0.90455502  0.87787468    -0.20500
F1504       F  0.48875335  0.90925390  0.90790444    -0.23100
C1505       C  0.47609018  0.68991007  0.14005386    -0.06000
C1506       C  0.45746948  0.66611247  0.12413938     0.00000
C1507       C  0.47821636  0.64078646  0.11189949    -0.08600
C1508       C  0.51670446  0.64202067  0.11378735    -0.06000
C1509       C  0.53534707  0.66756110  0.12691204    -0.00100
C1510       C  0.51445070  0.69131126  0.14167269    -0.08500
C1511       C  0.53177200  0.71890950  0.15829781     0.61900
H1512       H  0.46022543  0.70866416  0.15009167     0.12500
H1513       H  0.53267370  0.62367652  0.10318912     0.12600
C1514       C  0.46055211  0.61311938  0.09563578     0.62100
F1515       F  0.50673072  0.73473773  0.17634181    -0.23100
F1516       F  0.54564462  0.74002707  0.13697599    -0.20400
F1517       F  0.55938458  0.70855022  0.17763847    -0.20100
F1518       F  0.44177588  0.62344478  0.06971267    -0.20100
F1519       F  0.43685819  0.59798815  0.11559683    -0.20500
F1520       F  0.48604092  0.59127281  0.08605968    -0.23100
C1521       C  0.38775750  0.78390648  0.99334813    -0.06000
C1522       C  0.38340140  0.76602424  0.96643072     0.00000
C1523       C  0.38376742  0.73282618  0.96880908    -0.08600
C1524       C  0.38308891  0.71909645  0.99833322    -0.06000
C1525       C  0.38222040  0.73726267  0.02531291    -0.00100
C1526       C  0.38642925  0.77025676  0.02292106    -0.08500
C1527       C  0.38818559  0.79139385  0.05103313     0.61900
H1528       H  0.38947138  0.80917406  0.99124447     0.12500
H1529       H  0.38088437  0.69382695  0.00033721     0.12600
C1530       C  0.38454801  0.71163772  0.94071974     0.62100
F1531       F  0.40005470  0.82127149  0.04338349    -0.23100
F1532       F  0.41229324  0.77917680  0.07264543    -0.20400
F1533       F  0.35385523  0.79406517  0.06398153    -0.20100
F1534       F  0.40967901  0.72275175  0.91950064    -0.20100
F1535       F  0.35030276  0.71043596  0.92723902    -0.20500
F1536       F  0.39463569  0.68130479  0.94859890    -0.23100
C1537       C  0.27434944  0.98174188  0.89619024    -0.06000
C1538       C  0.24773805  0.98475232  0.87297181     0.00000
C1539       C  0.24601468  0.96205389  0.84926895    -0.08600
C1540       C  0.26988588  0.93634327  0.85063571    -0.06000
C1541       C  0.29436727  0.93143532  0.87540798    -0.00100
C1542       C  0.29753516  0.95529862  0.89824444    -0.08500
C1543       C  0.32430007  0.95312836  0.92508896     0.61900
H1544       H  0.27828128  0.50022516  0.90793178     0.12500
H1545       H  0.26796895  0.91877420  0.83276639     0.12600
C1546       C  0.21897219  0.96452213  0.82258201     0.62100
F1547       F  0.32482019  0.98034319  0.94237316    -0.23100
F1548       F  0.35922686  0.94830668  0.91403473    -0.20400
F1549       F  0.31464773  0.92876784  0.94463419    -0.20100
F1550       F  0.22141614  0.99373874  0.80876288    -0.20100
F1551       F  0.18386378  0.95992294  0.83331404    -0.20500
F1552       F  0.22554693  0.94229725  0.80007859    -0.23100
C1553       C  0.20121309  0.70146254  0.89676819    -0.06000
C1554       C  0.19995778  0.68440501  0.86904821     0.00000
C1555       C  0.21818788  0.69655359  0.84270095    -0.08600
C1556       C  0.24014460  0.72347785  0.84590772    -0.06000
C1557       C  0.24366450  0.73905596  0.87424672    -0.00100
C1558       C  0.22277993  0.72869654  0.89986607    -0.08500
C1559       C  0.22501113  0.74516621  0.93081156     0.61900
H1560       H  0.18718384  0.69200665  0.91677483     0.12500
H1561       H  0.25553287  0.73218761  0.82628124     0.12600
C1562       C  0.21484879  0.68111182  0.81134431     0.62100
F1563       F  0.20508988  0.72971225  0.95337980    -0.23100
F1564       F  0.21127854  0.77526353  0.92799041    -0.20400
F1565       F  0.26098040  0.74652526  0.94055348    -0.20100
F1566       F  0.17892915  0.67269723  0.80588730    -0.20100
F1567       F  0.23668866  0.65473050  0.81032500    -0.20500
F1568       F  0.22557414  0.70121673  0.78781124    -0.23100
C1569       C  0.21398084  0.63725578  0.98321510    -0.06000
C1570       C  0.23200504  0.61383428  0.96639017     0.00000
C1571       C  0.26616088  0.60244301  0.97696341    -0.08600
C1572       C  0.28133503  0.61576705  0.00375290    -0.06000
C1573       C  0.26345332  0.63969263  0.02013168    -0.00100
C1574       C  0.22899345  0.65036634  0.00983699    -0.08500
C1575       C  0.20955759  0.67731338  0.02508443     0.61900
H1576       H  0.18813538  0.64615796  0.97470682     0.12500
H1577       H  0.30757186  0.60759177  0.01215344     0.12600
C1578       C  0.28626855  0.57620955  0.96064498     0.62100
F1579       F  0.17776990  0.68583183  0.00976151    -0.23100
F1580       F  0.23269732  0.70272999  0.02474100    -0.20400
F1581       F  0.20035977  0.66937305  0.05506867    -0.20100
F1582       F  0.29913482  0.58686956  0.93248046    -0.20100
F1583       F  0.26300786  0.55110061  0.95602860    -0.20500
F1584       F  0.31584580  0.56553695  0.97772808    -0.23100
C1585       C  0.25196321  0.86649244  0.02571119    -0.06000
C1586       C  0.23407916  0.89531767  0.02207065     0.00000
C1587       C  0.23180311  0.90950787  0.99241027    -0.08600
C1588       C  0.24620912  0.89332449  0.96709904    -0.06000
C1589       C  0.26443851  0.86456813  0.97074407    -0.00100
C1590       C  0.26752274  0.85086405  0.00057548    -0.08500
C1591       C  0.28653868  0.81973024  0.00602780     0.61900
H1592       H  0.25286770  0.85587528  0.04853075     0.12500
H1593       H  0.24486707  0.90414944  0.94435231     0.12600
C1594       C  0.21632057  0.94201146  0.98615307     0.62100
F1595       F  0.28091744  0.80850939  0.03568909    -0.23100
F1596       F  0.32359214  0.82345873  0.00214549    -0.20400
F1597       F  0.27357054  0.79762212  0.98551251    -0.20100
F1598       F  0.20546995  0.95734705  0.01258758    -0.20100
F1599       F  0.18669298  0.93968367  0.96643553    -0.20500
F1600       F  0.24276144  0.96025472  0.97201360    -0.23100
C1601       C  0.10774629  0.48873028  0.96364601    -0.06000
C1602       C  0.11235974  0.52146825  0.96436137     0.00000
C1603       C  0.11073355  0.53681689  0.99351509    -0.08600
C1604       C  0.10761863  0.01920935  0.02214297    -0.06000
C1605       C  0.10795559  0.98626022  0.02161598    -0.00100
C1606       C  0.10309344  0.97110080  0.99266762    -0.08500
C1607       C  0.09496353  0.93628313  0.98990737     0.61900
H1608       H  0.10709858  0.47734193  0.94137624     0.12500
H1609       H  0.10875645  0.03075188  0.04431677     0.12600
C1610       C  0.11238537  0.57224330  0.99706039     0.62100
F1611       F  0.08746371  0.92777373  0.95972789    -0.23100
F1612       F  0.06453899  0.92900216  0.00736905    -0.20400
F1613       F  0.12445106  0.91871811  0.99990068    -0.20100
F1614       F  0.08399347  0.58624099  0.98096757    -0.20100
F1615       F  0.14542172  0.58310987  0.98627991    -0.20500
F1616       F  0.10941978  0.58145524  0.02757040    -0.23100
C1617       C  0.20252808  0.80666034  0.09357497    -0.06000
C1618       C  0.20470926  0.82650347  0.11929853     0.00000
C1619       C  0.22655153  0.81675640  0.14498382    -0.08600
C1620       C  0.24774141  0.78920385  0.14250014    -0.06000
C1621       C  0.24664249  0.77015126  0.11618010    -0.00100
C1622       C  0.22276231  0.77866976  0.09167890    -0.08500
C1623       C  0.21914905  0.75869292  0.06324812     0.61900
H1624       H  0.18565240  0.81375462  0.07419114     0.12500
H1625       H  0.26582358  0.78247134  0.16122287     0.12600
C1626       C  0.22782113  0.83487363  0.17510152     0.62100
F1627       F  0.19883327  0.77317071  0.04018093    -0.23100
F1628       F  0.20173123  0.73116338  0.07139285    -0.20400
F1629       F  0.25343361  0.75239838  0.05151973    -0.20100
F1630       F  0.19279930  0.84290546  0.18398569    -0.20100
F1631       F  0.24869220  0.86166401  0.17153589    -0.20500
F1632       F  0.24309976  0.81720987  0.19879835    -0.23100
C1633       C  0.25698323  0.53311804  0.13805448    -0.06000
C1634       C  0.24315652  0.52335351  0.10943133     0.00000
C1635       C  0.25495752  0.53808842  0.08193104    -0.08600
C1636       C  0.27827589  0.56408656  0.08419207    -0.06000
C1637       C  0.29056128  0.57510601  0.11295638    -0.00100
C1638       C  0.28126113  0.55857624  0.14026732    -0.08500
C1639       C  0.29825909  0.56680996  0.17118382     0.61900
H1640       H  0.23420361  0.02942289  0.16134828     0.12500
H1641       H  0.28585867  0.57684836  0.06347918     0.12600
C1642       C  0.24242122  0.52662599  0.05051597     0.62100
F1643       F  0.29064448  0.54434628  0.19349546    -0.23100
F1644       F  0.28509288  0.59524929  0.18143095    -0.20400
F1645       F  0.33579541  0.56861346  0.16808209    -0.20100
F1646       F  0.20468058  0.52634147  0.04914087    -0.20100
F1647       F  0.25547368  0.49662287  0.04578452    -0.20500
F1648       F  0.25508944  0.54555133  0.02678224    -0.23100
C1649       C  0.97607243  0.56046704  0.85040182    -0.06000
C1650       C  0.95752003  0.58455783  0.86586768     0.00000
C1651       C  0.97810681  0.61096718  0.87613277    -0.08600
C1652       C  0.01657167  0.60987365  0.87431068    -0.06000
C1653       C  0.03522864  0.58404948  0.86195707    -0.00100
C1654       C  0.01437888  0.56000708  0.84755159    -0.08500
C1655       C  0.03185603  0.53355149  0.82940992     0.61900
H1656       H  0.96033392  0.54109686  0.84132389     0.12500
H1657       H  0.03250782  0.62869802  0.88416576     0.12600
C1658       C  0.96035235  0.63991532  0.88993981     0.62100
F1659       F  0.00659873  0.51836611  0.81094105    -0.23100
F1660       F  0.04674536  0.51156176  0.84942830    -0.20400
F1661       F  0.05875959  0.54540112  0.81022930    -0.20100
F1662       F  0.94245209  0.63202632  0.91698585    -0.20100
F1663       F  0.93590385  0.65274488  0.86895090    -0.20500
F1664       F  0.98567666  0.66292647  0.89692857    -0.23100
C1665       C  0.73399830  0.59722223  0.98074739    -0.06000
C1666       C  0.76333258  0.61505232  0.97004123     0.00000
C1667       C  0.77456069  0.64222668  0.98633508    -0.08600
C1668       C  0.75703768  0.64960927  0.01405581    -0.06000
C1669       C  0.72788175  0.63166009  0.02489047    -0.00100
C1670       C  0.71562158  0.60518542  0.00794654    -0.08500
C1671       C  0.68421387  0.58469572  0.01889729     0.61900
H1672       H  0.72595250  0.57668959  0.96773889     0.12500
H1673       H  0.76515730  0.67014464  0.02703825     0.12600
C1674       C  0.80290969  0.66463436  0.97339367     0.62100
F1675       F  0.67897283  0.55901113  0.99999127    -0.23100
F1676       F  0.65204324  0.60163696  0.01901511    -0.20400
F1677       F  0.69158782  0.57365964  0.04830068    -0.20100
F1678       F  0.79342251  0.67244991  0.94340914    -0.20100
F1679       F  0.83709516  0.65089825  0.97388714    -0.20500
F1680       F  0.80488274  0.69214265  0.99013930    -0.23100
C1681       C  0.75873241  0.67899955  0.84974949    -0.06000
C1682       C  0.79221549  0.67751461  0.86574354     0.00000
C1683       C  0.80617444  0.70570075  0.87844273    -0.08600
C1684       C  0.78282697  0.73214574  0.88030426    -0.06000
C1685       C  0.74724657  0.73211731  0.86764155    -0.00100
C1686       C  0.73658850  0.70586074  0.84945191    -0.08500
C1687       C  0.70227644  0.70544759  0.82938170     0.61900
H1688       H  0.74875201  0.65820348  0.83828783     0.12500
H1689       H  0.79234621  0.75299702  0.89201485     0.12600
C1690       C  0.84596968  0.70876501  0.88786084     0.62100
F1691       F  0.70191810  0.68024640  0.80935813    -0.23100
F1692       F  0.70058923  0.73240051  0.81143227    -0.20400
F1693       F  0.67152570  0.70315500  0.84772916    -0.20100
F1694       F  0.86790350  0.69580002  0.86531653    -0.20100
F1695       F  0.85250706  0.69373362  0.91566713    -0.20500
F1696       F  0.85592911  0.73989817  0.89102226    -0.23100
C1697       C  0.73585543  0.96885687  0.85263505    -0.06000
C1698       C  0.74266195  0.98367936  0.88100422     0.00000
C1699       C  0.72396036  0.97303177  0.90772439    -0.08600
C1700       C  0.70128461  0.94629806  0.90552822    -0.06000
C1701       C  0.69661629  0.93013379  0.87755140    -0.00100
C1702       C  0.71209604  0.94294970  0.85028709    -0.08500
C1703       C  0.70455296  0.92920944  0.81867130     0.61900
H1704       H  0.76629910  0.46972205  0.83544115     0.12500
H1705       H  0.68933930  0.93636664  0.92625185     0.12600
C1706       C  0.73008179  0.98835386  0.93884771     0.62100
F1707       F  0.70389282  0.95269021  0.79642390    -0.23100
F1708       F  0.67100162  0.91427781  0.81789662    -0.20400
F1709       F  0.73163871  0.90796684  0.81133936    -0.20100
F1710       F  0.71936698  0.01942045  0.93761750    -0.20100
F1711       F  0.76669069  0.98667640  0.94663853    -0.20500
F1712       F  0.71025232  0.97378505  0.96198451    -0.23100
C1713       C  0.97715415  0.89301609  0.10480031    -0.06000
C1714       C  0.95844032  0.91310531  0.12489436     0.00000
C1715       C  0.97895744  0.93152886  0.14589004    -0.08600
C1716       C  0.01739386  0.93187985  0.14344656    -0.06000
C1717       C  0.03601079  0.91386410  0.12138858    -0.00100
C1718       C  0.01553754  0.89294124  0.10255932    -0.08500
C1719       C  0.03349726  0.87182664  0.07881796     0.61900
H1720       H  0.96122968  0.87858452  0.08931744     0.12500
H1721       H  0.03318847  0.94722770  0.15817626     0.12600
C1722       C  0.96063887  0.95070867  0.17086483     0.62100
F1723       F  0.00814998  0.85492857  0.06195584    -0.23100
F1724       F  0.05620078  0.85052248  0.09356612    -0.20400
F1725       F  0.05350730  0.88968583  0.05819044    -0.20100
F1726       F  0.93392165  0.93299703  0.18528663    -0.20100
F1727       F  0.94506619  0.97734339  0.15808591    -0.20500
F1728       F  0.98539972  0.95998576  0.19324092    -0.23100
C1729       C  0.88483722  0.98220126  0.96741281    -0.06000
C1730       C  0.88406429  0.51782733  0.97074685     0.00000
C1731       C  0.88387024  0.53208148  0.00040040    -0.08600
C1732       C  0.88467250  0.51267206  0.02685382    -0.06000
C1733       C  0.88275790  0.97704698  0.02341008    -0.00100
C1734       C  0.88411755  0.96276987  0.99380975    -0.08500
C1735       C  0.88266006  0.92746703  0.98942334     0.61900
H1736       H  0.88443848  0.97152995  0.94468223     0.12500
H1737       H  0.88259800  0.52340939  0.04953619     0.12600
C1738       C  0.88060764  0.56728038  0.00474425     0.62100
F1739       F  0.88492520  0.91914231  0.95861960    -0.23100
F1740       F  0.85001941  0.91600123  0.00061036    -0.20400
F1741       F  0.91156265  0.91334226  0.00473360    -0.20100
F1742       F  0.84746735  0.57740767  0.99331077    -0.20100
F1743       F  0.90879740  0.58250744  0.98967851    -0.20500
F1744       F  0.88230520  0.57572539  0.03555208    -0.23100
C1745       C  0.77390374  0.85257188  0.01247661    -0.06000
C1746       C  0.76048460  0.87997638  0.02630545     0.00000
C1747       C  0.72984937  0.89567040  0.01384234    -0.08600
C1748       C  0.71436746  0.88380023  0.98677942    -0.06000
C1749       C  0.72826845  0.85676766  0.97259275    -0.00100
C1750       C  0.75790691  0.84036472  0.98575031    -0.08500
C1751       C  0.77164156  0.80978651  0.97229598     0.61900
H1752       H  0.79707700  0.84075913  0.02290800     0.12500
H1753       H  0.69135209  0.89572234  0.97622820     0.12600
C1754       C  0.71432124  0.92511751  0.02837320     0.62100
F1755       F  0.79783839  0.79589066  0.99096993    -0.23100
F1756       F  0.78707324  0.81523170  0.94366748    -0.20400
F1757       F  0.74290637  0.78896333  0.96924840    -0.20100
F1758       F  0.74126210  0.94770527  0.03042503    -0.20100
F1759       F  0.70125280  0.91832111  0.05757955    -0.20500
F1760       F  0.68568384  0.93746530  0.01125015    -0.23100
C1761       C  0.71440580  0.51253173  0.11653803    -0.06000
C1762       C  0.75277471  0.51598896  0.11457539     0.00000
C1763       C  0.76731788  0.54697561  0.11271225    -0.08600
C1764       C  0.74337189  0.57266546  0.11476759    -0.06000
C1765       C  0.70539166  0.56923873  0.11736387    -0.00100
C1766       C  0.69041683  0.53868503  0.11756621    -0.08500
C1767       C  0.64953049  0.53385313  0.11948827     0.61900
H1768       H  0.71258065  0.99507966  0.14825452     0.12500
H1769       H  0.75437035  0.59624009  0.11398998     0.12600
C1770       C  0.80775059  0.55364107  0.10778243     0.62100
F1771       F  0.64058571  0.50246801  0.12275928    -0.23100
F1772       F  0.63312842  0.54510183  0.09282026    -0.20400
F1773       F  0.63576471  0.54977327  0.14463856    -0.20100
F1774       F  0.82054770  0.53641242  0.08312280    -0.20100
F1775       F  0.82728326  0.54612619  0.13420477    -0.20500
F1776       F  0.81426699  0.58496087  0.10113220    -0.23100
C1777       C  0.79818953  0.79482541  0.09740275    -0.06000
C1778       C  0.79637913  0.81413610  0.12369502     0.00000
C1779       C  0.77616410  0.80334298  0.14960262    -0.08600
C1780       C  0.75431313  0.77634021  0.14657961    -0.06000
C1781       C  0.75363476  0.75860112  0.11933405    -0.00100
C1782       C  0.77747892  0.76697018  0.09487046    -0.08500
C1783       C  0.77941770  0.74783017  0.06545448     0.61900
H1784       H  0.81406931  0.80279208  0.07783971     0.12500
H1785       H  0.73704515  0.76913272  0.16561749     0.12600
C1786       C  0.77661898  0.82026835  0.18032329     0.62100
F1787       F  0.80370022  0.76056267  0.04441463    -0.23100
F1788       F  0.74532063  0.74667672  0.05167527    -0.20400
F1789       F  0.79110118  0.71771454  0.07218752    -0.20100
F1790       F  0.75100320  0.84409514  0.17997876    -0.20100
F1791       F  0.81086684  0.83266053  0.18610498    -0.20500
F1792       F  0.76843584  0.79990419  0.20438108    -0.23100
C1793       C  0.65524665  0.82329172  0.72838716    -0.06000
C1794       C  0.68499383  0.80821921  0.71458412     0.00000
C1795       C  0.71423210  0.79713947  0.73323157    -0.08600
C1796       C  0.71089519  0.79930223  0.76547902    -0.06000
C1797       C  0.68025016  0.81313279  0.77924968    -0.00100
C1798       C  0.65301525  0.82714498  0.76042032    -0.08500
C1799       C  0.62219254  0.84758811  0.77225957     0.61900
H1800       H  0.63375473  0.83293188  0.71379706     0.12500
H1801       H  0.73197120  0.78955646  0.78035418     0.12600
C1802       C  0.74816692  0.78232519  0.71946873     0.62100
F1803       F  0.62379352  0.87650703  0.75760647    -0.23100
F1804       F  0.62377743  0.85283412  0.80368574    -0.20400
F1805       F  0.58911194  0.83372482  0.76525808    -0.20100
F1806       F  0.76704200  0.80442786  0.70231382    -0.20100
F1807       F  0.73838624  0.75763017  0.70070073    -0.20500
F1808       F  0.77161004  0.77088135  0.74204672    -0.23100
C1809       C  0.65770486  0.67026634  0.26628195    -0.06000
C1810       C  0.68324661  0.68939732  0.28130091     0.00000
C1811       C  0.70779166  0.70778041  0.26363562    -0.08600
C1812       C  0.70553932  0.70668121  0.23113809    -0.06000
C1813       C  0.67938676  0.68809118  0.21614349    -0.00100
C1814       C  0.65561673  0.66897601  0.23384386    -0.08500
C1815       C  0.62873083  0.64686161  0.21851856     0.61900
H1816       H  0.63919674  0.65641402  0.28027845     0.12500
H1817       H  0.72372425  0.72082574  0.21712407     0.12600
C1818       C  0.73522632  0.72923221  0.27912719     0.62100
F1819       F  0.61147110  0.62763607  0.23984010    -0.23100
F1820       F  0.64682259  0.62792334  0.19773551    -0.20400
F1821       F  0.60230969  0.66392886  0.20302465    -0.20100
F1822       F  0.75895812  0.71166569  0.29712543    -0.20100
F1823       F  0.71708768  0.75047601  0.29759832    -0.20500
F1824       F  0.75568456  0.74593015  0.25779917    -0.23100
C1825       C  0.65004819  0.72475091  0.48751469    -0.06000
C1826       C  0.61876458  0.72835549  0.46927683     0.00000
C1827       C  0.58846014  0.74499186  0.48085179    -0.08600
C1828       C  0.59089492  0.75822698  0.51064636    -0.06000
C1829       C  0.62244244  0.75469475  0.52906960    -0.00100
C1830       C  0.65257158  0.73743562  0.51727897    -0.08500
C1831       C  0.68805796  0.73348873  0.53521077     0.61900
H1832       H  0.67287946  0.71188511  0.47795643     0.12500
H1833       H  0.56827231  0.77172349  0.51967302     0.12600
C1834       C  0.55428488  0.74907709  0.46145010     0.62100
F1835       F  0.68224225  0.71492739  0.56104940    -0.23100
F1836       F  0.70092586  0.76256221  0.54406399    -0.20400
F1837       F  0.71495776  0.71926485  0.51777419    -0.20100
F1838       F  0.54046727  0.71998844  0.45367674    -0.20100
F1839       F  0.56263552  0.76547824  0.43471865    -0.20500
F1840       F  0.52743989  0.76537831  0.47707054    -0.23100
C1841       C  0.34818495  0.81808831  0.72927058    -0.06000
C1842       C  0.31636127  0.80774697  0.71438163     0.00000
C1843       C  0.28524922  0.79956911  0.73219740    -0.08600
C1844       C  0.28750267  0.80164680  0.76448948    -0.06000
C1845       C  0.31949887  0.81144631  0.77936067    -0.00100
C1846       C  0.35035728  0.82035104  0.76156953    -0.08500
C1847       C  0.38526458  0.83268006  0.77626541     0.61900
H1848       H  0.37150910  0.82451541  0.71525772     0.12500
H1849       H  0.26428058  0.79507018  0.77855173     0.12600
C1850       C  0.25010937  0.78783015  0.71757452     0.62100
F1851       F  0.40842251  0.84584231  0.75452322    -0.23100
F1852       F  0.40377104  0.80840572  0.79074499    -0.20400
F1853       F  0.37709521  0.85561117  0.79763012    -0.20100
F1854       F  0.25773244  0.76383705  0.69731838    -0.20100
F1855       F  0.23299301  0.81208940  0.70188992    -0.20500
F1856       F  0.22595402  0.77631282  0.73942813    -0.23100
C1857       C  0.47727340  0.80688359  0.64277778    -0.06000
C1858       C  0.45996724  0.83077640  0.62548014     0.00000
C1859       C  0.48230208  0.85424851  0.61150339    -0.08600
C1860       C  0.52066109  0.85091338  0.61288595    -0.06000
C1861       C  0.53786315  0.82525948  0.62758372    -0.00100
C1862       C  0.51565192  0.80377676  0.64439723    -0.08500
C1863       C  0.53179520  0.77743433  0.66394155     0.61900
H1864       H  0.46030046  0.78961926  0.65423930     0.12500
H1865       H  0.53759607  0.86777448  0.60086140     0.12600
C1866       C  0.46636536  0.88210089  0.59391462     0.62100
F1867       F  0.50587286  0.76379425  0.68298350    -0.23100
F1868       F  0.55930754  0.78904320  0.68261898    -0.20400
F1869       F  0.54559290  0.75424601  0.64510028    -0.20100
F1870       F  0.44446329  0.89949713  0.61334446    -0.20100
F1871       F  0.44611178  0.87170852  0.56898456    -0.20500
F1872       F  0.49319985  0.90193919  0.58262698    -0.23100
C1873       C  0.28789844  0.69899863  0.26242162    -0.06000
C1874       C  0.32108683  0.69281814  0.27758411     0.00000
C1875       C  0.35269221  0.68604228  0.26001196    -0.08600
C1876       C  0.34975186  0.68610233  0.22765251    -0.06000
C1877       C  0.31664804  0.69282482  0.21242093    -0.00100
C1878       C  0.28504998  0.69952624  0.23008675    -0.08500
C1879       C  0.24865864  0.70808969  0.21528605     0.61900
H1880       H  0.26402844  0.70381684  0.27626740     0.12500
H1881       H  0.37360413  0.68100646  0.21386753     0.12600
C1882       C  0.38922529  0.67821863  0.27503876     0.62100
F1883       F  0.22346414  0.71811196  0.23686794    -0.23100
F1884       F  0.23417955  0.68220931  0.20059916    -0.20400
F1885       F  0.25343723  0.73216975  0.19414508    -0.20100
F1886       F  0.38475739  0.65488042  0.29707294    -0.20100
F1887       F  0.40353449  0.70470114  0.28878966    -0.20500
F1888       F  0.41443285  0.66764277  0.25372830    -0.23100
C1889       C  0.47782912  0.68713443  0.34874016    -0.06000
C1890       C  0.45970644  0.66631486  0.36879518     0.00000
C1891       C  0.48062681  0.64416059  0.38611315    -0.08600
C1892       C  0.51891801  0.64510648  0.38395955    -0.06000
C1893       C  0.53712677  0.66744467  0.36569304    -0.00100
C1894       C  0.51622297  0.68801443  0.34665996    -0.08500
C1895       C  0.53398257  0.71088129  0.32422834     0.61900
H1896       H  0.46160741  0.70360475  0.33534988     0.12500
H1897       H  0.53514345  0.62935390  0.39813089     0.12600
C1898       C  0.46319850  0.62059219  0.40815772     0.62100
F1899       F  0.50892246  0.72299077  0.30329754    -0.23100
F1900       F  0.56091764  0.69576984  0.30762962    -0.20400
F1901       F  0.54908127  0.73571797  0.34015289    -0.20100
F1902       F  0.44194378  0.59973531  0.39166238    -0.20100
F1903       F  0.44187213  0.63603998  0.42955154    -0.20500
F1904       F  0.48897500  0.60328584  0.42437672    -0.23100
C1905       C  0.38447588  0.76233648  0.46870813    -0.06000
C1906       C  0.38002095  0.72953699  0.46968029     0.00000
C1907       C  0.38091702  0.71436733  0.49910951    -0.08600
C1908       C  0.38027831  0.73292145  0.52596924    -0.06000
C1909       C  0.38102189  0.76590454  0.52491869    -0.00100
C1910       C  0.38638823  0.78075754  0.49566580    -0.08500
C1911       C  0.39410939  0.81566304  0.49227837     0.61900
H1912       H  0.38595689  0.77370547  0.44630796     0.12500
H1913       H  0.37842199  0.72154665  0.54833849     0.12600
C1914       C  0.38185026  0.67892326  0.50278922     0.62100
F1915       F  0.40125589  0.82415146  0.46195825    -0.23100
F1916       F  0.42447663  0.82347585  0.50967935    -0.20400
F1917       F  0.36443859  0.83291421  0.50191621    -0.20100
F1918       F  0.41186017  0.66697135  0.48751902    -0.20100
F1919       F  0.35020197  0.66606748  0.49101364    -0.20500
F1920       F  0.38469133  0.66970788  0.53344395    -0.23100
C1921       C  0.20789046  0.56110018  0.72448984    -0.06000
C1922       C  0.17401720  0.56043496  0.70926566     0.00000
C1923       C  0.14147112  0.56327854  0.72675878    -0.08600
C1924       C  0.14425001  0.56399406  0.75912184    -0.06000
C1925       C  0.17817402  0.56358787  0.77445416    -0.00100
C1926       C  0.21082232  0.56351720  0.75670006    -0.08500
C1927       C  0.24876903  0.56628460  0.77095329     0.61900
H1928       H  0.23245197  0.55984322  0.71073338     0.12500
H1929       H  0.11961362  0.56512603  0.77280196     0.12600
C1930       C  0.10402623  0.56669707  0.71173643     0.62100
F1931       F  0.27612039  0.56411499  0.74905670    -0.23100
F1932       F  0.25453424  0.54267083  0.79240965    -0.20400
F1933       F  0.25231516  0.59511706  0.78504076    -0.20100
F1934       F  0.09368865  0.53866288  0.69846705    -0.20100
F1935       F  0.10495065  0.59003427  0.68936807    -0.20500
F1936       F  0.07749329  0.57482858  0.73295937    -0.23100
C1937       C  0.26880108  0.93462090  0.64566377    -0.06000
C1938       C  0.29430576  0.92945617  0.62183510     0.00000
C1939       C  0.29827754  0.95315683  0.59864998    -0.08600
C1940       C  0.27386246  0.97881191  0.59842004    -0.06000
C1941       C  0.24587788  0.98182560  0.62029300    -0.00100
C1942       C  0.24448952  0.96023995  0.64534027    -0.08500
C1943       C  0.21761496  0.96400413  0.67178737     0.61900
H1944       H  0.26645576  0.91729664  0.66394064     0.12500
H1945       H  0.26796203  0.49254499  0.56812596     0.12600
C1946       C  0.32671648  0.95121142  0.57326358     0.62100
F1947       F  0.22533712  0.94376916  0.69610939    -0.23100
F1948       F  0.18259410  0.95767667  0.66158890    -0.20400
F1949       F  0.21914234  0.99426336  0.68303515    -0.20100
F1950       F  0.31833338  0.92694806  0.55343004    -0.20100
F1951       F  0.36087727  0.94642368  0.58618008    -0.20500
F1952       F  0.32832255  0.97856736  0.55588874    -0.23100
C1953       C  0.19315380  0.70307199  0.59676304    -0.06000
C1954       C  0.19638239  0.68190611  0.62173444     0.00000
C1955       C  0.22081571  0.68937011  0.64607367    -0.08600
C1956       C  0.24527683  0.71446014  0.64226822    -0.06000
C1957       C  0.24341474  0.73486454  0.61672407    -0.00100
C1958       C  0.21561783  0.72998992  0.59418651    -0.08500
C1959       C  0.21062279  0.75210963  0.56680629     0.61900
H1960       H  0.17441951  0.69735989  0.57826470     0.12500
H1961       H  0.26558262  0.71857509  0.65999520     0.12600
C1962       C  0.22220751  0.67128322  0.67634162     0.62100
F1963       F  0.18518767  0.74091599  0.54589994    -0.23100
F1964       F  0.24339061  0.75592572  0.55141092    -0.20400
F1965       F  0.19841185  0.78091739  0.57701297    -0.20100
F1966       F  0.25300396  0.65252461  0.67702948    -0.20100
F1967       F  0.19155179  0.65281975  0.68062594    -0.20500
F1968       F  0.22387565  0.69210112  0.70070544    -0.23100
C1969       C  0.22466651  0.64573391  0.51035635    -0.06000
C1970       C  0.23088987  0.61490472  0.52076217     0.00000
C1971       C  0.25121997  0.59366353  0.50289206    -0.08600
C1972       C  0.26630850  0.60466775  0.47524909    -0.06000
C1973       C  0.26036818  0.63556303  0.46502621    -0.00100
C1974       C  0.23901142  0.65648192  0.48232987    -0.08500
C1975       C  0.23193057  0.68983779  0.47132824     0.61900
H1976       H  0.20814881  0.66123088  0.52433552     0.12500
H1977       H  0.28289057  0.58922720  0.46125799     0.12600
C1978       C  0.25558128  0.55947783  0.51236911     0.62100
F1979       F  0.21222856  0.70683388  0.49269602    -0.23100
F1980       F  0.21216062  0.68928569  0.44406825    -0.20400
F1981       F  0.26470361  0.70514874  0.46631536    -0.20100
F1982       F  0.22154258  0.54586324  0.51587797    -0.20100
F1983       F  0.27448722  0.55735721  0.53998986    -0.20500
F1984       F  0.27457987  0.54251880  0.49051133    -0.23100
C1985       C  0.16117511  0.96887452  0.26236859    -0.06000
C1986       C  0.17568626  0.94206102  0.27683671     0.00000
C1987       C  0.18931371  0.91718684  0.25852380    -0.08600
C1988       C  0.18837492  0.92051536  0.22618460    -0.06000
C1989       C  0.17375143  0.94733109  0.21176342    -0.00100
C1990       C  0.15993741  0.97206313  0.23008077    -0.08500
C1991       C  0.14473640  0.00204682  0.21586880     0.61900
H1992       H  0.15086027  0.98758636  0.27673706     0.12500
H1993       H  0.19873600  0.90187790  0.21175009     0.12600
C1994       C  0.20356246  0.88683315  0.27274244     0.62100
F1995       F  0.14437272  0.52643030  0.23448595    -0.23100
F1996       F  0.11190533  0.99584729  0.20130359    -0.20400
F1997       F  0.16923312  0.01420642  0.19468673    -0.20100
F1998       F  0.17819797  0.87487252  0.29328051    -0.20100
F1999       F  0.23612025  0.89230639  0.28801765    -0.20500
F2000       F  0.20993071  0.86419402  0.25062572    -0.23100
C2001       C  0.22060777  0.89684232  0.49615660    -0.06000
C2002       C  0.23382093  0.88621975  0.46765481     0.00000
C2003       C  0.26187755  0.86330041  0.46707242    -0.08600
C2004       C  0.27510300  0.85163419  0.49528166    -0.06000
C2005       C  0.26178820  0.86220027  0.52373573    -0.00100
C2006       C  0.23342025  0.88480504  0.52433700    -0.08500
C2007       C  0.21645840  0.89629779  0.55420241     0.61900
H2008       H  0.19939522  0.91454238  0.49612658     0.12500
H2009       H  0.29632815  0.83394361  0.49538456     0.12600
C2010       C  0.27767331  0.85071175  0.43720222     0.62100
F2011       F  0.19078667  0.91964130  0.54909334    -0.23100
F2012       F  0.24309465  0.90842724  0.57322267    -0.20400
F2013       F  0.19916027  0.87165292  0.56904369    -0.20100
F2014       F  0.29493153  0.87463354  0.42123686    -0.20100
F2015       F  0.25016385  0.83838942  0.41920849    -0.20500
F2016       F  0.30304121  0.82714245  0.44241666    -0.23100
C2017       C  0.11632495  0.01593258  0.46481653    -0.06000
C2018       C  0.11453069  0.98302597  0.46638518     0.00000
C2019       C  0.10806655  0.96859321  0.49566387    -0.08600
C2020       C  0.11009696  0.48899535  0.51817722    -0.06000
C2021       C  0.11660372  0.52150297  0.51717808    -0.00100
C2022       C  0.11976874  0.53633443  0.48771979    -0.08500
C2023       C  0.12366586  0.57159245  0.48382365     0.61900
H2024       H  0.11925164  0.02690622  0.44235026     0.12500
H2025       H  0.10603027  0.47805398  0.54054372     0.12600
C2026       C  0.10073019  0.93366532  0.49952189     0.62100
F2027       F  0.12546749  0.58062675  0.45307317    -0.23100
F2028       F  0.15537756  0.58139449  0.49793282    -0.20400
F2029       F  0.09393242  0.58661973  0.49663742    -0.20100
F2030       F  0.13063408  0.91655187  0.49012929    -0.20100
F2031       F  0.07046411  0.92536622  0.48223262    -0.20500
F2032       F  0.09373406  0.92548061  0.52995273    -0.23100
C2033       C  0.22303537  0.81314866  0.34655920    -0.06000
C2034       C  0.19795678  0.81801260  0.37069028     0.00000
C2035       C  0.19432462  0.79415241  0.39376970    -0.08600
C2036       C  0.21859273  0.76839839  0.39329705    -0.06000
C2037       C  0.24660521  0.76601874  0.37134305    -0.00100
C2038       C  0.24803798  0.78818594  0.34682341    -0.08500
C2039       C  0.27614919  0.78612473  0.32114505     0.61900
H2040       H  0.22494258  0.83056757  0.32830867     0.12500
H2041       H  0.21712531  0.75056610  0.41123015     0.12600
C2042       C  0.16653642  0.79606102  0.41970835     0.62100
F2043       F  0.26912672  0.80731717  0.29746918    -0.23100
F2044       F  0.27590833  0.75643472  0.30858984    -0.20400
F2045       F  0.31047766  0.79262648  0.33282105    -0.20100
F2046       F  0.13206649  0.80105349  0.40747784    -0.20100
F2047       F  0.17551689  0.82018777  0.43952258    -0.20500
F2048       F  0.16528263  0.76863382  0.43700424    -0.23100
C2049       C  0.25197486  0.53361055  0.34337778    -0.06000
C2050       C  0.25533193  0.51310494  0.36874865     0.00000
C2051       C  0.28313254  0.51881944  0.39099932    -0.08600
C2052       C  0.30389358  0.54666624  0.38852797    -0.06000
C2053       C  0.29836565  0.56846161  0.36435314    -0.00100
C2054       C  0.27407034  0.56035036  0.34003278    -0.08500
C2055       C  0.26952147  0.57975685  0.31073237     0.61900
H2056       H  0.23233685  0.02518758  0.32668066     0.12500
H2057       H  0.32286220  0.55264070  0.40679211     0.12600
C2058       C  0.28962629  0.49672451  0.41815632     0.62100
F2059       F  0.26580366  0.56019422  0.28552674    -0.23100
F2060       F  0.29941251  0.59878747  0.30518207    -0.20400
F2061       F  0.23845867  0.59803977  0.31304600    -0.20100
F2062       F  0.30238687  0.46823935  0.40757084    -0.20100
F2063       F  0.25743017  0.49214120  0.43418618    -0.20500
F2064       F  0.31528775  0.50842224  0.43860682    -0.23100
C2065       C  0.82050240  0.52265548  0.76781713    -0.06000
C2066       C  0.81298142  0.55147512  0.78180859     0.00000
C2067       C  0.80447250  0.57805977  0.76336682    -0.08600
C2068       C  0.80402785  0.57474788  0.73111883    -0.06000
C2069       C  0.81232573  0.54610068  0.71706207    -0.00100
C2070       C  0.82010875  0.51937307  0.73555811    -0.08500
C2071       C  0.82687670  0.48740709  0.72145525     0.61900
H2072       H  0.82672107  0.50264265  0.78250295     0.12500
H2073       H  0.79792582  0.59475613  0.71647897     0.12600
C2074       C  0.79734866  0.60996824  0.77755683     0.62100
F2075       F  0.84345266  0.96547453  0.74257217    -0.23100
F2076       F  0.85965162  0.48749072  0.70572893    -0.20400
F2077       F  0.81214952  0.97788384  0.69972359    -0.20100
F2078       F  0.82619914  0.61810353  0.79657838    -0.20100
F2079       F  0.76548946  0.60907308  0.79455783    -0.20500
F2080       F  0.79360075  0.63321894  0.75531181    -0.23100
C2081       C  0.97175866  0.59792977  0.60940337    -0.06000
C2082       C  0.95595216  0.57363822  0.62701172     0.00000
C2083       C  0.97932474  0.55369650  0.64452586    -0.08600
C2084       C  0.01752560  0.55695800  0.64126300    -0.06000
C2085       C  0.03327670  0.57963754  0.62157630    -0.00100
C2086       C  0.00983114  0.60141856  0.60625997    -0.08500
C2087       C  0.02429227  0.62739670  0.58534488     0.61900
H2088       H  0.95382377  0.61345742  0.59657469     0.12500
H2089       H  0.03550475  0.54091185  0.65344033     0.12600
C2090       C  0.96443100  0.52916710  0.66672060     0.62100
F2091       F  0.99645876  0.64487526  0.57199692    -0.23100
F2092       F  0.04466222  0.61462501  0.56168809    -0.20400
F2093       F  0.04569350  0.64772498  0.60233846    -0.20100
F2094       F  0.94972678  0.50443449  0.65039924    -0.20100
F2095       F  0.93780859  0.54234309  0.68516944    -0.20500
F2096       F  0.99148634  0.51732816  0.68595514    -0.23100
C2097       C  0.72456592  0.61055591  0.52707071    -0.06000
C2098       C  0.76274851  0.61174238  0.52801507     0.00000
C2099       C  0.78177802  0.62817842  0.50420237    -0.08600
C2100       C  0.76183306  0.64007989  0.47906348    -0.06000
C2101       C  0.72375700  0.63768896  0.47730749    -0.00100
C2102       C  0.70433702  0.62389986  0.50267334    -0.08500
C2103       C  0.66271361  0.62305085  0.50495272     0.61900
H2104       H  0.71052232  0.59883911  0.54584212     0.12500
H2105       H  0.77619425  0.65138767  0.46022610     0.12600
C2106       C  0.82277191  0.63423278  0.50511169     0.62100
F2107       F  0.65093203  0.60944379  0.53230318    -0.23100
F2108       F  0.64783316  0.60582382  0.48111602    -0.20400
F2109       F  0.64903248  0.65326486  0.50405508    -0.20100
F2110       F  0.84161944  0.60647236  0.50111694    -0.20100
F2111       F  0.83231957  0.64757710  0.53303781    -0.20500
F2112       F  0.83380085  0.65468641  0.48197296    -0.23100
C2113       C  0.74784637  0.70740348  0.64641005    -0.06000
C2114       C  0.75465879  0.72875250  0.62220664     0.00000
C2115       C  0.78561637  0.72326945  0.60310006    -0.08600
C2116       C  0.80425515  0.69423489  0.60583814    -0.06000
C2117       C  0.79482027  0.67151301  0.62823815    -0.00100
C2118       C  0.76845662  0.67990371  0.65082397    -0.08500
C2119       C  0.76143933  0.66039720  0.67968946     0.61900
H2120       H  0.72564933  0.71220513  0.66216399     0.12500
H2121       H  0.82556635  0.68860399  0.58951337     0.12600
C2122       C  0.79887069  0.74721974  0.57957118     0.62100
F2123       F  0.74483730  0.67799600  0.70248012    -0.23100
F2124       F  0.79416039  0.64951590  0.69164821    -0.20400
F2125       F  0.73879235  0.63544225  0.67282851    -0.20100
F2126       F  0.80809521  0.77475420  0.59437575    -0.20100
F2127       F  0.77189687  0.75311605  0.55797332    -0.20500
F2128       F  0.82954868  0.73693300  0.56398246    -0.23100
C2129       C  0.73516850  0.96239564  0.64283032    -0.06000
C2130       C  0.74297457  0.97733281  0.61460795     0.00000
C2131       C  0.72588321  0.96650854  0.58730291    -0.08600
C2132       C  0.70381449  0.93936369  0.58888358    -0.06000
C2133       C  0.69774087  0.92324041  0.61692700    -0.00100
C2134       C  0.71166736  0.93631210  0.64464932    -0.08500
C2135       C  0.70212901  0.92407767  0.67663901     0.61900
H2136       H  0.74714967  0.97153650  0.66383598     0.12500
H2137       H  0.69314123  0.92937080  0.56781252     0.12600
C2138       C  0.72480430  0.48620708  0.55862688     0.62100
F2139       F  0.69067972  0.94880776  0.69475468    -0.23100
F2140       F  0.73271233  0.91066569  0.69009971    -0.20400
F2141       F  0.67422185  0.90224936  0.67622661    -0.20100
F2142       F  0.76128966  0.48817873  0.55068526    -0.20100
F2143       F  0.71080195  0.51610244  0.56205071    -0.20500
F2144       F  0.70623858  0.47202790  0.53457239    -0.23100
C2145       C  0.82551957  0.96589329  0.26325849    -0.06000
C2146       C  0.81455307  0.93833601  0.27847636     0.00000
C2147       C  0.80313144  0.91206654  0.26114337    -0.08600
C2148       C  0.80378986  0.91421583  0.22879133    -0.06000
C2149       C  0.81560459  0.94152268  0.21353534    -0.00100
C2150       C  0.82599225  0.96814618  0.23090845    -0.08500
C2151       C  0.83648429  0.99905434  0.21563191     0.61900
H2152       H  0.83376170  0.98576194  0.27706737     0.12500
H2153       H  0.79568493  0.89426095  0.21505380     0.12600
C2154       C  0.79193938  0.88149790  0.27658209     0.62100
F2155       F  0.85823806  0.51796550  0.23755128    -0.23100
F2156       F  0.80982130  0.00793976  0.19460468    -0.20400
F2157       F  0.88457805  0.48653520  0.20306330    -0.20100
F2158       F  0.75989956  0.88569499  0.29283653    -0.20100
F2159       F  0.81922592  0.87175381  0.29656546    -0.20500
F2160       F  0.78615914  0.85787874  0.25533235    -0.23100
C2161       C  0.97600301  0.93594985  0.35172504    -0.06000
C2162       C  0.95795867  0.91373679  0.37044393     0.00000
C2163       C  0.97930808  0.89048704  0.38597483    -0.08600
C2164       C  0.01770891  0.89245924  0.38440630    -0.06000
C2165       C  0.03562506  0.91656344  0.36810478    -0.00100
C2166       C  0.01435411  0.93774164  0.35007240    -0.08500
C2167       C  0.03155272  0.96257008  0.32938374     0.61900
H2168       H  0.95975542  0.95303497  0.33921084     0.12500
H2169       H  0.03414715  0.87600061  0.39751762     0.12600
C2170       C  0.96235205  0.86437003  0.40529488     0.62100
F2171       F  0.00650207  0.97504367  0.30866289    -0.23100
F2172       F  0.05964777  0.94955926  0.31242873    -0.20400
F2173       F  0.04490111  0.98687272  0.34713301    -0.20100
F2174       F  0.93952219  0.84646960  0.38700165    -0.20100
F2175       F  0.94282219  0.87700746  0.42952396    -0.20500
F2176       F  0.98842492  0.84443194  0.41781117    -0.23100
C2177       C  0.88094706  0.46389056  0.49415830    -0.06000
C2178       C  0.87485721  0.98896637  0.46526849     0.00000
C2179       C  0.85590594  0.01763215  0.47118178    -0.08600
C2180       C  0.85763924  0.03040113  0.50105990    -0.06000
C2181       C  0.87760869  0.50943690  0.52768826    -0.00100
C2182       C  0.87994897  0.47636619  0.52416838    -0.08500
C2183       C  0.88136817  0.45391032  0.55158817     0.61900
H2184       H  0.88068889  0.43873134  0.49138014     0.12500
H2185       H  0.84261355  0.05152735  0.50632875     0.12600
C2186       C  0.83243414  0.03437680  0.44706485     0.62100
F2187       F  0.89141832  0.42395322  0.54282306    -0.23100
F2188       F  0.84738231  0.45196014  0.56528591    -0.20400
F2189       F  0.90684020  0.46419557  0.57289764    -0.20100
F2190       F  0.81667785  0.06147986  0.45841377    -0.20100
F2191       F  0.80436075  0.01492704  0.43768409    -0.20500
F2192       F  0.85359793  0.04289748  0.42196625    -0.23100
C2193       C  0.72697163  0.88866898  0.47352412    -0.06000
C2194       C  0.76505865  0.88694967  0.47197786     0.00000
C2195       C  0.78476157  0.87023726  0.49531132    -0.08600
C2196       C  0.76515208  0.85575801  0.51915733    -0.06000
C2197       C  0.72709905  0.85760357  0.52088857    -0.00100
C2198       C  0.70737528  0.87464588  0.49774278    -0.08500
C2199       C  0.66606577  0.87894094  0.49840986     0.61900
H2200       H  0.71261548  0.90132079  0.45545991     0.12500
H2201       H  0.77960154  0.84287931  0.53700566     0.12600
C2202       C  0.82619319  0.86681853  0.49528681     0.62100
F2203       F  0.65386210  0.89895887  0.47525408    -0.23100
F2204       F  0.65556121  0.89171422  0.52629153    -0.20400
F2205       F  0.64899882  0.85034116  0.49423044    -0.20100
F2206       F  0.84236953  0.89579980  0.49946428    -0.20100
F2207       F  0.83758925  0.85401331  0.46770268    -0.20500
F2208       F  0.83853695  0.84732178  0.51881146    -0.23100
C2209       C  0.71928694  0.55903225  0.34964970    -0.06000
C2210       C  0.70023022  0.56704138  0.37671653     0.00000
C2211       C  0.70094997  0.54522335  0.40189837    -0.08600
C2212       C  0.72322134  0.51815504  0.39997423    -0.06000
C2213       C  0.74494075  0.51205448  0.37408230    -0.00100
C2214       C  0.74127976  0.53185817  0.34773480    -0.08500
C2215       C  0.75997364  0.52416399  0.31742710     0.61900
H2216       H  0.71813385  0.57509433  0.33019725     0.12500
H2217       H  0.72729331  0.00272805  0.41867938     0.12600
C2218       C  0.68069716  0.55126899  0.43170980     0.62100
F2219       F  0.74762133  0.54312472  0.29348678    -0.23100
F2220       F  0.75283122  0.49337346  0.30956075    -0.20400
F2221       F  0.79723972  0.52840559  0.32017276    -0.20100
F2222       F  0.64380231  0.55485466  0.42576742    -0.20100
F2223       F  0.69447583  0.57801792  0.44508450    -0.20500
F2224       F  0.68464023  0.52691030  0.45278581    -0.23100
C2225       C  0.77420299  0.77055314  0.35999311    -0.06000
C2226       C  0.74947215  0.76488432  0.38413821     0.00000
C2227       C  0.74836239  0.78577345  0.40935943    -0.08600
C2228       C  0.77079449  0.81263644  0.40874950    -0.06000
C2229       C  0.79400436  0.81935155  0.38371322    -0.00100
C2230       C  0.79682467  0.79734665  0.35943905    -0.08500
C2231       C  0.82357544  0.80051427  0.33297826     0.61900
H2232       H  0.77561379  0.75400793  0.34111793     0.12500
H2233       H  0.76887412  0.82959904  0.42721125     0.12600
C2234       C  0.72287718  0.78000118  0.43638221     0.62100
F2235       F  0.84490867  0.77376823  0.33170610    -0.23100
F2236       F  0.84671907  0.82588558  0.33613317    -0.20400
F2237       F  0.80452471  0.80358230  0.30549337    -0.20100
F2238       F  0.72953563  0.75064087  0.44897478    -0.20100
F2239       F  0.68706266  0.78148882  0.42632540    -0.20500
F2240       F  0.72752156  0.80199987  0.45944813    -0.23100
loop_ 
_geom_bond_atom_site_label_1 
_geom_bond_atom_site_label_2 
_geom_bond_distance 
_geom_bond_site_symmetry_2 
_ccdc_geom_bond_type 
Fe1          O17   2.111       .  S
Fe1           O7   2.048       .  S
Fe1          O14   2.063       .  S
Fe1           O6   2.096       .  S
Fe1          O12   1.944       .  S
Fe2           O5   2.101       .  S
Fe2           O9   2.065       .  S
Fe2          O13   2.094       .  S
Fe2          O18   2.036       .  S
Fe2          O12   1.941       .  S
Fe3          O21   2.062       .  S
Fe3           O8   2.100       .  S
Fe3          O15   2.091       .  S
Fe3           O4   2.079       .  S
Fe3          O12   1.944       .  S
O4           C11   1.270       .  A
O5           C19   1.274       .  A
O6           C11   1.272       .  A
O7           C10   1.274       .  A
O8           C20   1.280       .  A
O9           C22   1.269       .  A
C10          O15   1.277       .  A
C10        C1026   1.479       .  S
C11        C2213   1.499       .  S
O13          C16   1.276       .  A
O14          C16   1.270       .  A
C16        C1058   1.496       .  S
O17          C22   1.277       .  A
O18          C20   1.264       .  A
C19          O21   1.266       .  A
C19        C1109   1.486       .  S
C20        C1074   1.487       .  S
C22        C1042   1.504       .  S
Fe23         O39   2.100       .  S
Fe23         O29   2.048       .  S
Fe23         O36   2.057       .  S
Fe23         O28   2.096   1_545  S
Fe23         O34   1.945       .  S
Fe24         O27   2.104       .  S
Fe24         O31   2.050       .  S
Fe24         O35   2.094       .  S
Fe24         O40   2.024       .  S
Fe24         O34   1.941       .  S
Fe25         O43   2.047       .  S
Fe25         O30   2.097       .  S
Fe25         O37   2.091       .  S
Fe25         O26   2.066       .  S
Fe25         O34   1.934       .  S
O26          C33   1.267       .  A
O27          C41   1.275       .  A
O28          C33   1.273   1_565  A
O29          C32   1.271       .  A
O30          C42   1.279       .  A
O31          C44   1.268       .  A
C32          O37   1.279       .  A
C32         C949   1.476       .  S
C33        C2130   1.487   1_545  S
O35          C38   1.276       .  A
O36          C38   1.271       .  A
C38        C1061   1.479       .  S
O39          C44   1.274       .  A
O40          C42   1.261       .  A
C41          O43   1.263       .  A
C41         C997   1.506       .  S
C42         C978   1.483       .  S
C44         C962   1.487       .  S
Fe45         O61   2.061       .  S
Fe45         O51   2.092       .  S
Fe45         O58   2.100       .  S
Fe45         O50   2.052       .  S
Fe45         O56   1.942       .  S
Fe46         O49   2.027       .  S
Fe46         O53   2.098       .  S
Fe46         O57   2.065       .  S
Fe46         O62   2.100       .  S
Fe46         O56   1.948       .  S
Fe47         O65   2.080       .  S
Fe47         O52   2.050       .  S
Fe47         O59   2.061       .  S
Fe47         O48   2.081       .  S
Fe47         O56   1.947       .  S
O48          C55   1.274       .  A
O49          C63   1.268       .  A
O50          C55   1.273       .  A
O51          C54   1.273       .  A
O52          C64   1.267       .  A
O53          C66   1.273       .  A
C54          O59   1.265       .  A
C54        C2050   1.493       .  S
C55         C866   1.477       .  S
O57          C60   1.272       .  A
O58          C60   1.274       .  A
C60        C1045   1.500       .  S
O61          C66   1.273       .  A
O62          C64   1.272       .  A
C63          O65   1.272       .  A
C63         C882   1.480       .  S
C64         C914   1.509       .  S
C66         C898   1.504       .  S
Fe67         O83   2.055       .  S
Fe67         O73   2.081       .  S
Fe67         O80   2.076       .  S
Fe67         O72   2.046       .  S
Fe67         O78   1.960       .  S
Fe68         O71   2.032       .  S
Fe68         O75   2.104       .  S
Fe68         O79   2.058       .  S
Fe68         O84   2.087       .  S
Fe68         O78   1.954       .  S
Fe69         O87   2.064       .  S
Fe69         O74   2.037       .  S
Fe69         O81   2.053       .  S
Fe69         O70   2.076       .  S
Fe69         O78   1.950       .  S
O70          C77   1.281       .  A
O71          C85   1.266       .  A
O72          C77   1.272       .  A
O73          C76   1.264       .  A
O74          C86   1.263       .  A
O75          C88   1.279       .  A
C76          O81   1.260       .  A
C76        C1941   1.491   1_545  S
C77         C802   1.483       .  S
O79          C82   1.262       .  A
O80          C82   1.266       .  A
C82         C965   1.488       .  S
O83          C88   1.276       .  A
O84          C86   1.273       .  A
C85          O87   1.271       .  A
C85         C850   1.466       .  S
C86         C834   1.488       .  S
C88         C901   1.498       .  S
Fe89        O105   2.086       .  S
Fe89         O95   2.060       .  S
Fe89        O102   2.071       .  S
Fe89         O94   2.080       .  S
Fe89        O100   1.956       .  S
Fe90         O93   2.079       .  S
Fe90         O97   2.055       .  S
Fe90        O101   2.103       .  S
Fe90        O106   2.022       .  S
Fe90        O100   1.956       .  S
Fe91        O109   2.054       .  S
Fe91         O96   2.073       .  S
Fe91        O103   2.084       .  S
Fe91         O92   2.064       .  S
Fe91        O100   1.960       .  S
O92          C99   1.263       .  A
O93         C107   1.271       .  A
O94          C99   1.266       .  A
O95          C98   1.275       .  A
O96         C108   1.273       .  A
O97         C110   1.261       .  A
C98         O103   1.279       .  A
C98         C754   1.478       .  S
C99         C917   1.495       .  S
O101        C104   1.276       .  A
O102        C104   1.276       .  A
C104        C786   1.506       .  S
O105        C110   1.271       .  A
O106        C108   1.264       .  A
C107        O109   1.266       .  A
C107        C933   1.490       .  S
C108        C853   1.463       .  S
C110        C770   1.498       .  S
Fe111       O127   2.095       .  S
Fe111       O117   2.061       .  S
Fe111       O124   2.072       .  S
Fe111       O116   2.092       .  S
Fe111       O122   1.953       .  S
Fe112       O115   2.105       .  S
Fe112       O119   2.059       .  S
Fe112       O123   2.101       .  S
Fe112       O128   2.028       .  S
Fe112       O122   1.950       .  S
Fe113       O131   2.055       .  S
Fe113       O118   2.071       .  S
Fe113       O125   2.072       .  S
Fe113       O114   2.054       .  S
Fe113       O122   1.947       .  S
O114        C121   1.262       .  A
O115        C129   1.273       .  A
O116        C121   1.271       .  A
O117        C120   1.275       .  A
O118        C130   1.272       .  A
O119        C132   1.268       .  A
C120        O125   1.274       .  A
C120        C722   1.479       .  S
C121        C837   1.492       .  S
O123        C126   1.274       .  A
O124        C126   1.275       .  A
C126        C789   1.510       .  S
O127        C132   1.275       .  A
O128        C130   1.268       .  A
C129        O131   1.267       .  A
C129        C818   1.509       .  S
C130        C885   1.476       .  S
C132        C738   1.496       .  S
Fe133       O149   2.057       .  S
Fe133       O139   2.089       .  S
Fe133       O146   2.089       .  S
Fe133       O138   2.055       .  S
Fe133       O144   1.942       .  S
Fe134       O137   2.028       .  S
Fe134       O141   2.093       .  S
Fe134       O145   2.060       .  S
Fe134       O150   2.102       .  S
Fe134       O144   1.949       .  S
Fe135       O153   2.097       .  S
Fe135       O140   2.052       .  S
Fe135       O147   2.066       .  S
Fe135       O136   2.100       .  S
Fe135       O144   1.937       .  S
O136        C143   1.281       .  A
O137        C151   1.262       .  A
O138        C143   1.274       .  A
O139        C142   1.269       .  A
O140        C152   1.267       .  A
O141        C154   1.272       .  A
C142        O147   1.265       .  A
C142       C1106   1.484       .  S
C143        C690   1.475       .  S
O145        C148   1.270       .  A
O146        C148   1.272       .  A
C148        C773   1.495       .  S
O149        C154   1.270       .  A
O150        C152   1.273       .  A
C151        O153   1.281       .  A
C151        C981   1.486       .  S
C152       C1090   1.502       .  S
C154        C706   1.473       .  S
Fe155       O171   2.053       .  S
Fe155       O161   2.089       .  S
Fe155       O168   2.097       .  S
Fe155       O160   2.053       .  S
Fe155       O166   1.937       .  S
Fe156       O159   2.027       .  S
Fe156       O163   2.101       .  S
Fe156       O167   2.057       .  S
Fe156       O172   2.112       .  S
Fe156       O166   1.940       .  S
Fe157       O175   2.100       .  S
Fe157       O162   2.048       .  S
Fe157       O169   2.069       .  S
Fe157       O158   2.097       .  S
Fe157       O166   1.939       .  S
O158        C165   1.278       .  A
O159        C173   1.260       .  A
O160        C165   1.273       .  A
O161        C164   1.274       .  A
O162        C174   1.266       .  A
O163        C176   1.276       .  A
C164        O169   1.267       .  A
C164        C994   1.505       .  S
C165        C674   1.477       .  S
O167        C170   1.269       .  A
O168        C170   1.273       .  A
C170        C741   1.496       .  S
O171        C176   1.269       .  A
O172        C174   1.278       .  A
C173        O175   1.279       .  A
C173       C1077   1.484       .  S
C174       C1013   1.496       .  S
C176        C709   1.484       .  S
Fe177       O193   2.049       .  S
Fe177       O183   2.079       .  S
Fe177       O190   2.079       .  S
Fe177       O182   2.041       .  S
Fe177       O188   1.946       .  S
Fe178       O181   2.025       .  S
Fe178       O185   2.113       .  S
Fe178       O189   2.065       .  S
Fe178       O194   2.103       .  S
Fe178       O188   1.954       .  S
Fe179       O197   2.077       .  S
Fe179       O184   2.063       .  S
Fe179       O191   2.082       .  S
Fe179       O180   2.088       .  S
Fe179       O188   1.954       .  S
O180        C187   1.279       .  A
O181        C195   1.265       .  A
O182        C187   1.270       .  A
O183        C186   1.266       .  A
O184        C196   1.268       .  A
O185        C198   1.278       .  A
C186        O191   1.268       .  A
C186       C1762   1.509       .  S
C187       C1029   1.475       .  S
O189        C192   1.268       .  A
O190        C192   1.268       .  A
C192        C594   1.491       .  S
O193        C198   1.272       .  A
O194        C196   1.277       .  A
C195        O197   1.274       .  A
C195        C626   1.463       .  S
C196        C658   1.504       .  S
C198        C613   1.506       .  S
Fe199       O215   2.048       .  S
Fe199       O205   2.107       .  S
Fe199       O212   2.105       .  S
Fe199       O204   2.048       .  S
Fe199       O210   1.937       .  S
Fe200       O203   2.019       .  S
Fe200       O207   2.110       .  S
Fe200       O211   2.050       .  S
Fe200       O216   2.104       .  S
Fe200       O210   1.948       .  S
Fe201       O219   2.104       .  S
Fe201       O206   2.042       .  S
Fe201       O213   2.066       .  S
Fe201       O202   2.087       .  S
Fe201       O210   1.930       .  S
O202        C209   1.275       .  A
O203        C217   1.261       .  A
O204        C209   1.271       .  A
O205        C208   1.276       .  A
O206        C218   1.263       .  A
O207        C220   1.277       .  A
C208        O213   1.268       .  A
C208       C1698   1.492   1_545  S
C209        C946   1.475       .  S
O211        C214   1.264       .  A
O212        C214   1.277       .  A
C214        C530   1.500       .  S
O215        C220   1.272       .  A
O216        C218   1.272       .  A
C217        O219   1.279       .  A
C217        C546   1.473       .  S
C218        C562   1.497       .  S
C220        C610   1.500       .  S
Fe221       O237   2.096       .  S
Fe221       O227   2.045       .  S
Fe221       O234   2.054       .  S
Fe221       O226   2.094       .  S
Fe221       O232   1.932       .  S
Fe222       O225   2.094       .  S
Fe222       O229   2.055       .  S
Fe222       O233   2.090       .  S
Fe222       O238   2.034       .  S
Fe222       O232   1.938       .  S
Fe223       O241   2.034       .  S
Fe223       O228   2.086       .  S
Fe223       O235   2.086       .  S
Fe223       O224   2.036       .  S
Fe223       O232   1.937       .  S
O224        C231   1.260       .  A
O225        C239   1.276       .  A
O226        C231   1.272       .  A
O227        C230   1.270       .  A
O228        C240   1.275       .  A
O229        C242   1.267       .  A
C230        O235   1.277       .  A
C230        C869   1.473       .  S
C231       C1634   1.468       .  S
O233        C236   1.271       .  A
O234        C236   1.272       .  A
C236        C485   1.496       .  S
O237        C242   1.277       .  A
O238        C240   1.263       .  A
C239        O241   1.260       .  A
C239        C498   1.492       .  S
C240        C466   1.460       .  S
C242        C597   1.492       .  S
Fe243       O259   2.066       .  S
Fe243       O249   2.057       .  S
Fe243       O256   2.064       .  S
Fe243       O248   2.059       .  S
Fe243       O254   1.965       .  S
Fe244       O247   2.078       .  S
Fe244       O251   2.069       .  S
Fe244       O255   2.081       .  S
Fe244       O260   2.043       .  S
Fe244       O254   1.960       .  S
Fe245       O263   2.051       .  S
Fe245       O250   2.066       .  S
Fe245       O257   2.066       .  S
Fe245       O246   2.062       .  S
Fe245       O254   1.967       .  S
O246        C253   1.261       .  A
O247        C261   1.269       .  A
O248        C253   1.261       .  A
O249        C252   1.278       .  A
O250        C262   1.272       .  A
O251        C264   1.269       .  A
C252        O257   1.274       .  A
C252        C805   1.481       .  S
C253       C1538   1.484   1_545  S
O255        C258   1.271       .  A
O256        C258   1.274       .  A
C258        C482   1.498       .  S
O259        C264   1.263       .  A
O260        C262   1.271       .  A
C261        O263   1.264       .  A
C261        C434   1.482       .  S
C262        C450   1.479       .  S
C264        C533   1.500       .  S
Fe265       O281   2.052       .  S
Fe265       O271   2.090       .  S
Fe265       O278   2.093       .  S
Fe265       O270   2.048       .  S
Fe265       O276   1.949       .  S
Fe266       O269   2.046       .  S
Fe266       O273   2.095       .  S
Fe266       O277   2.066       .  S
Fe266       O282   2.097       .  S
Fe266       O276   1.945       .  S
Fe267       O285   2.094       .  S
Fe267       O272   2.047       .  S
Fe267       O279   2.062       .  S
Fe267       O268   2.088       .  S
Fe267       O276   1.940       .  S
O268        C275   1.276       .  A
O269        C283   1.269       .  A
O270        C275   1.273       .  A
O271        C274   1.271       .  A
O272        C284   1.264       .  A
O273        C286   1.278       .  A
C274        O279   1.266       .  A
C274        C501   1.493       .  S
C275        C757   1.480       .  S
O277        C280   1.267       .  A
O278        C280   1.274       .  A
C280        C386   1.504       .  S
O281        C286   1.270       .  A
O282        C284   1.275       .  A
C283        O285   1.276       .  A
C283        C453   1.482       .  S
C284        C517   1.493       .  S
C286        C405   1.488       .  S
Fe287       O303   2.043       .  S
Fe287       O293   2.091       .  S
Fe287       O300   2.094       .  S
Fe287       O292   2.036       .  S
Fe287       O298   1.934       .  S
Fe288       O291   2.025       .  S
Fe288       O295   2.101       .  S
Fe288       O299   2.054       .  S
Fe288       O304   2.096       .  S
Fe288       O298   1.941       .  S
Fe289       O307   2.097       .  S
Fe289       O294   2.045       .  S
Fe289       O301   2.065       .  S
Fe289       O290   2.091       .  S
Fe289       O298   1.934       .  S
O290        C297   1.279       .  A
O291        C305   1.266       .  A
O292        C297   1.268       .  A
O293        C296   1.272       .  A
O294        C306   1.265       .  A
O295        C308   1.277       .  A
C296        O301   1.267       .  A
C296        C437   1.485       .  S
C297        C725   1.477       .  S
O299        C302   1.266       .  A
O300        C302   1.276       .  A
C302        C370   1.498       .  S
O303        C308   1.267       .  A
O304        C306   1.270       .  A
C305        O307   1.278       .  A
C305        C469   1.466       .  S
C306        C421   1.504       .  S
C308        C402   1.492       .  S
Fe309       O325   2.095       .  S
Fe309       O315   2.052       .  S
Fe309       O322   2.059       .  S
Fe309       O314   2.090       .  S
Fe309       O320   1.942       .  S
Fe310       O313   2.102       .  S
Fe310       O317   2.066       .  S
Fe310       O321   2.099       .  S
Fe310       O326   2.027       .  S
Fe310       O320   1.950       .  S
Fe311       O329   2.062       .  S
Fe311       O316   2.103       .  S
Fe311       O323   2.099       .  S
Fe311       O312   2.077       .  S
Fe311       O320   1.945       .  S
O312        C319   1.268       .  A
O313        C327   1.274       .  A
O314        C319   1.271       .  A
O315        C318   1.273       .  A
O316        C328   1.281       .  A
O317        C330   1.271       .  A
C318        O323   1.280       .  A
C318        C693   1.472       .  S
C319        C661   1.499       .  S
O321        C324   1.277       .  A
O322        C324   1.269       .  A
C324        C354   1.501       .  S
O325        C330   1.272       .  A
O326        C328   1.263       .  A
C327        O329   1.266       .  A
C327        C645   1.487       .  S
C328        C549   1.474       .  S
C330        C389   1.503       .  S
Fe331       O347   2.061       .  S
Fe331       O337   2.057       .  S
Fe331       O344   2.054       .  S
Fe331       O336   2.047       .  S
Fe331       O342   1.950       .  S
Fe332       O335   2.099       .  S
Fe332       O339   2.075       .  S
Fe332       O343   2.103       .  S
Fe332       O348   2.032       .  S
Fe332       O342   1.959       .  S
Fe333       O351   2.046       .  S
Fe333       O338   2.073       .  S
Fe333       O345   2.090       .  S
Fe333       O334   2.071       .  S
Fe333       O342   1.962       .  S
O334        C341   1.263       .  A
O335        C349   1.276       .  A
O336        C341   1.258       .  A
O337        C340   1.275       .  A
O338        C350   1.274       .  A
O339        C352   1.269       .  A
C340        O345   1.281       .  A
C340        C677   1.472       .  S
C341        C565   1.500       .  S
O343        C346   1.280       .  A
O344        C346   1.270       .  A
C346        C357   1.497       .  S
O347        C352   1.261       .  A
O348        C350   1.267       .  A
C349        O351   1.266       .  A
C349        C581   1.497       .  S
C350        C629   1.468       .  S
C352        C373   1.502       .  S
C353        C354   1.409       .  A
C353        C358   1.410   1_554  A
C353        H360   1.082       .  S
C354        C355   1.424       .  A
C355        C356   1.409   1_554  A
C355        C362   1.521       .  S
C356        C357   1.406       .  A
C356        H361   1.082       .  S
C357        C358   1.422       .  A
C358        C359   1.521       .  S
C359        F363   1.385       .  S
C359        F364   1.383       .  S
C359        F365   1.384       .  S
C362        F366   1.383       .  S
C362        F367   1.384       .  S
C362        F368   1.385       .  S
C369        C370   1.405       .  A
C369        C374   1.407       .  A
C369        H376   1.082       .  S
C370        C371   1.425       .  A
C371        C372   1.411       .  A
C371        C378   1.522       .  S
C372        C373   1.407       .  A
C372        H377   1.081       .  S
C373        C374   1.430       .  A
C374        C375   1.525       .  S
C375        F379   1.385       .  S
C375        F380   1.383       .  S
C375        F381   1.381       .  S
C378        F382   1.384       .  S
C378        F383   1.383       .  S
C378        F384   1.385       .  S
C385        C386   1.408       .  A
C385        C390   1.411       .  A
C385        H392   1.083       .  S
C386        C387   1.425       .  A
C387        C388   1.413       .  A
C387        C394   1.521       .  S
C388        C389   1.408       .  A
C388        H393   1.082       .  S
C389        C390   1.424       .  A
C390        C391   1.521       .  S
C391        F395   1.385       .  S
C391        F396   1.383       .  S
C391        F397   1.383       .  S
C394        F398   1.384       .  S
C394        F399   1.383       .  S
C394        F400   1.385       .  S
C401        C402   1.407       .  A
C401        C406   1.407   1_556  A
C401        H408   1.083       .  S
C402        C403   1.422       .  A
C403        C404   1.404       .  A
C403        C410   1.521       .  S
C404        C405   1.405   1_556  A
C404        H409   1.083   1_556  S
C405        C406   1.420       .  A
C406        C407   1.519       .  S
C407        F411   1.385       .  S
C407        F412   1.384       .  S
C407        F413   1.383       .  S
C410        F414   1.384       .  S
C410        F415   1.383       .  S
C410        F416   1.385       .  S
C417        C418   1.404       .  A
C417        C422   1.413       .  A
C417       H1544   1.083       .  S
C418       C1373   1.490       .  S
C418        C419   1.420       .  A
C419        C420   1.405       .  A
C419        C426   1.524       .  S
C420        C421   1.410       .  A
C420        H425   1.082       .  S
C421        C422   1.428       .  A
C422        C423   1.520       .  S
C423        F427   1.385       .  S
C423        F428   1.383       .  S
C423        F429   1.382       .  S
H424       C1537   1.084       .  S
C426        F430   1.380       .  S
C426        F431   1.382       .  S
C426        F432   1.385       .  S
C433        C434   1.408       .  A
C433        C438   1.411       .  A
C433        H440   1.083       .  S
C434        C435   1.418       .  A
C435        C436   1.407       .  A
C435        C442   1.517       .  S
C436        C437   1.404       .  A
C436        H441   1.085       .  S
C437        C438   1.416       .  A
C438        C439   1.518       .  S
C439        F443   1.385       .  S
C439        F444   1.382       .  S
C439        F445   1.384       .  S
C442        F446   1.383       .  S
C442        F447   1.383       .  S
C442        F448   1.384       .  S
C449        C450   1.404       .  A
C449        C454   1.396   1_556  A
C449        H456   1.082       .  S
C450        C451   1.417       .  A
C451        C452   1.408   1_556  A
C451        C458   1.519       .  S
C452        C453   1.408       .  A
C452        H457   1.083       .  S
C453        C454   1.413       .  A
C454        C455   1.507       .  S
C455        F459   1.385       .  S
C455        F460   1.375       .  S
C455        F461   1.382       .  S
C458        F462   1.382       .  S
C458        F463   1.384       .  S
C458        F464   1.384       .  S
C465        C466   1.398       .  A
C465        C470   1.398   1_554  A
C465        H472   1.084       .  S
C466        C467   1.419   1_554  A
C467        C468   1.403       .  A
C467        C474   1.520       .  S
C468        C469   1.403       .  A
C468        H473   1.086       .  S
C469        C470   1.414       .  A
C470        C471   1.517       .  S
C471        F475   1.381   1_556  S
C471        F476   1.379       .  S
C471        F477   1.383       .  S
C474        F478   1.381   1_556  S
C474        F479   1.383       .  S
C474        F480   1.384       .  S
C481        C482   1.406   1_565  A
C481       C1606   1.409       .  A
C481        H488   1.083       .  S
C482        C483   1.426       .  A
C483       C1604   1.407   1_556  A
C483        C490   1.522       .  S
C484        C485   1.403       .  A
C484       C1603   1.405   1_554  A
C484        H489   1.082       .  S
C485        C486   1.424   1_554  A
C486       C1601   1.410       .  A
C486        C487   1.520       .  S
C487        F491   1.385       .  S
C487        F492   1.383   1_556  S
C487        F493   1.380       .  S
C490        F494   1.384       .  S
C490        F495   1.381       .  S
C490        F496   1.385   1_556  S
C497        C498   1.403       .  A
C497        C502   1.403       .  A
C497        H504   1.082       .  S
C498        C499   1.425       .  A
C499        C500   1.409       .  A
C499        C506   1.520       .  S
C500        C501   1.403       .  A
C500        H505   1.082       .  S
C501        C502   1.417       .  A
C502        C503   1.506       .  S
C503        F507   1.385       .  S
C503        F508   1.380       .  S
C503        F509   1.383       .  S
C506        F510   1.384       .  S
C506        F511   1.383       .  S
C506        F512   1.385       .  S
C513        C514   1.403       .  A
C513        C518   1.410       .  A
C513       H1640   1.084       .  S
C514       C1351   1.487   1_545  S
C514        C515   1.418       .  A
C515        C516   1.411       .  A
C515        C522   1.519       .  S
C516        C517   1.408       .  A
C516        H521   1.083       .  S
C517        C518   1.421       .  A
C518        C519   1.520       .  S
C519        F523   1.385       .  S
C519        F524   1.382       .  S
C519        F525   1.384       .  S
H520       C1633   1.084       .  S
C522        F526   1.383       .  S
C522        F527   1.382   1_545  S
C522        F528   1.384       .  S
C529        C530   1.406       .  A
C529        C534   1.410   1_655  A
C529        H536   1.083       .  S
C530        C531   1.427       .  A
C531        C532   1.408   1_655  A
C531        C538   1.522       .  S
C532        C533   1.405       .  A
C532        H537   1.081       .  S
C533        C534   1.426       .  A
C534        C535   1.521       .  S
C535        F539   1.385       .  S
C535        F540   1.383       .  S
C535        F541   1.383       .  S
C538        F542   1.383       .  S
C538        F543   1.383       .  S
C538        F544   1.385       .  S
C545        C546   1.395       .  A
C545        C550   1.402   1_556  A
C545        H552   1.084       .  S
C546        C547   1.424       .  A
C547        C548   1.403   1_556  A
C547        C554   1.520       .  S
C548        C549   1.397       .  A
C548        H553   1.085       .  S
C549        C550   1.426       .  A
C550        C551   1.522       .  S
C551        F555   1.385   1_554  S
C551        F556   1.382       .  S
C551        F557   1.379       .  S
C554        F558   1.380       .  S
C554        F559   1.381       .  S
C554        F560   1.385       .  S
C561        C562   1.406       .  A
C561        C566   1.401       .  A
C561        H568   1.082       .  S
C562        C563   1.418       .  A
C563        C564   1.414       .  A
C563        C570   1.517       .  S
C564        C565   1.413       .  A
C564        H569   1.085       .  S
C565        C566   1.428       .  A
C566        C567   1.527       .  S
C567        F571   1.385       .  S
C567        F572   1.384       .  S
C567        F573   1.384       .  S
C570        F574   1.382       .  S
C570        F575   1.381       .  S
C570        F576   1.384       .  S
C577        C578   1.405       .  A
C577        C582   1.407       .  A
C577       H1704   1.085       .  S
C578       C1328   1.497       .  S
C578        C579   1.423       .  A
C579        C580   1.417       .  A
C579        C586   1.519       .  S
C580        C581   1.409       .  A
C580        H585   1.083       .  S
C581        C582   1.421       .  A
C582        C583   1.518       .  S
C583        F587   1.384       .  S
C583        F588   1.383       .  S
C583        F589   1.383       .  S
H584       C1697   1.084       .  S
C586        F590   1.383       .  S
C586        F591   1.383       .  S
C586        F592   1.384       .  S
C593        C594   1.405       .  A
C593        C598   1.410   1_655  A
C593        H600   1.082       .  S
C594        C595   1.420       .  A
C595        C596   1.408   1_655  A
C595        C602   1.519       .  S
C596        C597   1.405       .  A
C596        H601   1.083       .  S
C597        C598   1.424       .  A
C598        C599   1.521       .  S
C599        F603   1.385       .  S
C599        F604   1.383       .  S
C599        F605   1.383       .  S
C602        F606   1.384       .  S
C602        F607   1.382       .  S
C602        F608   1.385       .  S
C609        C614   1.413       .  A
C609       C1730   1.409       .  A
C609        H616   1.089       .  S
C610        C611   1.424       .  A
C610       C1729   1.407   1_545  A
C611        C612   1.407   1_556  A
C611        C618   1.517   1_556  S
C612       C1733   1.406   1_545  A
C612        H617   1.088       .  S
C613        C614   1.424   1_554  A
C613       C1732   1.408       .  A
C614        C615   1.519       .  S
C615        F619   1.385       .  S
C615        F620   1.382   1_556  S
C615        F621   1.384   1_556  S
C618        F622   1.377   1_554  S
C618        F623   1.383   1_554  S
C618        F624   1.385       .  S
C625        C626   1.407       .  A
C625        C630   1.402   1_554  A
C625        H632   1.083       .  S
C626        C627   1.408       .  A
C627        C628   1.399   1_554  A
C627        C634   1.519       .  S
C628        C629   1.409       .  A
C628        H633   1.083       .  S
C629        C630   1.412       .  A
C630        C631   1.520       .  S
C631        F635   1.384       .  S
C631        F636   1.382       .  S
C631        F637   1.384       .  S
C634        F638   1.384       .  S
C634        F639   1.382       .  S
C634        F640   1.384       .  S
C641        C642   1.407       .  A
C641        C646   1.413       .  A
C641       H1768   1.086   1_545  S
C642       C1306   1.488   1_545  S
C642        C643   1.416       .  A
C643        C644   1.408       .  A
C643        C650   1.520       .  S
C644        C645   1.407       .  A
C644        H649   1.085       .  S
C645        C646   1.417       .  A
C646        C647   1.514       .  S
C647        F651   1.384       .  S
C647        F652   1.382       .  S
C647        F653   1.383       .  S
H648       C1761   1.083       .  S
C650        F654   1.382       .  S
C650        F655   1.381       .  S
C650        F656   1.385       .  S
C657        C658   1.410       .  A
C657        C662   1.416       .  A
C657        H664   1.083       .  S
C658        C659   1.423       .  A
C659        C660   1.413       .  A
C659        C666   1.519       .  S
C660        C661   1.406       .  A
C660        H665   1.084       .  S
C661        C662   1.419       .  A
C662        C663   1.519       .  S
C663        F667   1.384       .  S
C663        F668   1.384       .  S
C663        F669   1.383       .  S
C666        F670   1.382       .  S
C666        F671   1.384       .  S
C666        F672   1.385       .  S
C673        C674   1.403       .  A
C673        C678   1.406       .  A
C673        H680   1.084       .  S
C674        C675   1.418       .  A
C675        C676   1.405       .  A
C675        C682   1.517       .  S
C676        C677   1.400       .  A
C676        H681   1.084       .  S
C677        C678   1.416       .  A
C678        C679   1.518       .  S
C679        F683   1.385       .  S
C679        F684   1.383       .  S
C679        F685   1.380       .  S
C682        F686   1.382       .  S
C682        F687   1.380       .  S
C682        F688   1.385       .  S
C689        C690   1.403       .  A
C689        C694   1.407       .  A
C689        H696   1.083       .  S
C690        C691   1.415       .  A
C691        C692   1.407       .  A
C691        C698   1.515       .  S
C692        C693   1.402       .  A
C692        H697   1.083       .  S
C693        C694   1.415       .  A
C694        C695   1.518       .  S
C695        F699   1.384       .  S
C695        F700   1.383       .  S
C695        F701   1.381       .  S
C698        F702   1.382       .  S
C698        F703   1.384       .  S
C698        F704   1.384       .  S
C705        C706   1.398       .  A
C705        C710   1.402       .  A
C705        H712   1.084       .  S
C706        C707   1.412       .  A
C707        C708   1.413       .  A
C707        C714   1.515       .  S
C708        C709   1.408       .  A
C708        H713   1.084       .  S
C709        C710   1.422       .  A
C710        C711   1.521       .  S
C711        F715   1.383       .  S
C711        F716   1.382       .  S
C711        F717   1.385       .  S
C714        F718   1.383       .  S
C714        F719   1.383       .  S
C714        F720   1.385       .  S
C721        C722   1.403       .  A
C721        C726   1.404       .  A
C721        H728   1.083       .  S
C722        C723   1.421       .  A
C723        C724   1.404       .  A
C723        C730   1.521       .  S
C724        C725   1.402       .  A
C724        H729   1.083       .  S
C725        C726   1.420       .  A
C726        C727   1.522       .  S
C727        F731   1.385       .  S
C727        F732   1.383       .  S
C727        F733   1.384       .  S
C730        F734   1.382       .  S
C730        F735   1.383       .  S
C730        F736   1.385       .  S
C737        C738   1.408       .  A
C737        C742   1.411       .  A
C737        H744   1.083       .  S
C738        C739   1.423       .  A
C739        C740   1.409       .  A
C739        C746   1.522       .  S
C740        C741   1.406       .  A
C740        H745   1.082       .  S
C741        C742   1.421       .  A
C742        C743   1.520       .  S
C743        F747   1.385       .  S
C743        F748   1.384       .  S
C743        F749   1.382       .  S
C746        F750   1.383       .  S
C746        F751   1.383       .  S
C746        F752   1.385       .  S
C753        C754   1.404       .  A
C753        C758   1.405       .  A
C753        H760   1.081       .  S
C754        C755   1.417       .  A
C755        C756   1.404       .  A
C755        C762   1.520       .  S
C756        C757   1.405       .  A
C756        H761   1.083       .  S
C757        C758   1.419       .  A
C758        C759   1.520       .  S
C759        F763   1.385       .  S
C759        F764   1.382       .  S
C759        F765   1.382       .  S
C762        F766   1.384       .  S
C762        F767   1.382       .  S
C762        F768   1.385       .  S
C769        C770   1.407       .  A
C769        C774   1.407       .  A
C769        H776   1.084       .  S
C770        C771   1.426       .  A
C771        C772   1.410       .  A
C771        C778   1.522       .  S
C772        C773   1.406       .  A
C772        H777   1.082       .  S
C773        C774   1.421       .  A
C774        C775   1.519       .  S
C775        F779   1.385       .  S
C775        F780   1.384       .  S
C775        F781   1.383       .  S
C778        F782   1.384       .  S
C778        F783   1.383       .  S
C778        F784   1.385       .  S
C785        C786   1.406       .  A
C785        C790   1.413       .  A
C785        H792   1.083       .  S
C786        C787   1.426       .  A
C787        C788   1.412       .  A
C787        C794   1.518       .  S
C788        C789   1.407       .  A
C788        H793   1.082       .  S
C789        C790   1.427       .  A
C790        C791   1.519       .  S
C791        F795   1.385       .  S
C791        F796   1.384       .  S
C791        F797   1.382       .  S
C794        F798   1.384       .  S
C794        F799   1.378       .  S
C794        F800   1.385       .  S
C801        C802   1.406       .  A
C801        C806   1.400       .  A
C801        H808   1.083       .  S
C802        C803   1.423       .  A
C803        C804   1.402       .  A
C803        C810   1.524       .  S
C804        C805   1.405       .  A
C804        H809   1.084       .  S
C805        C806   1.420       .  A
C806        C807   1.523       .  S
C807        F811   1.385       .  S
C807        F812   1.382       .  S
C807        F813   1.383       .  S
C810        F814   1.383       .  S
C810        F815   1.384       .  S
C810        F816   1.385       .  S
C817        C818   1.410       .  A
C817        C822   1.411       .  A
C817        H824   1.082       .  S
C818        C819   1.429       .  A
C819        C820   1.417       .  A
C819        C826   1.519       .  S
C820        C821   1.403       .  A
C820       H1945   1.083       .  S
C821       C1196   1.492       .  S
C821        C822   1.416       .  A
C822        C823   1.519       .  S
C823        F827   1.385       .  S
C823        F828   1.382       .  S
C823        F829   1.383       .  S
H825       C1940   1.083       .  S
C826        F830   1.381       .  S
C826        F831   1.383       .  S
C826        F832   1.385       .  S
C833        C834   1.406       .  A
C833        C838   1.412       .  A
C833        H840   1.084       .  S
C834        C835   1.420       .  A
C835        C836   1.406       .  A
C835        C842   1.519       .  S
C836        C837   1.405       .  A
C836        H841   1.085       .  S
C837        C838   1.422       .  A
C838        C839   1.520       .  S
C839        F843   1.384       .  S
C839        F844   1.384       .  S
C839        F845   1.383       .  S
C842        F846   1.383       .  S
C842        F847   1.384       .  S
C842        F848   1.384       .  S
C849        C850   1.408       .  A
C849        C854   1.401       .  A
C849        H856   1.084       .  S
C850        C851   1.412       .  A
C851        C852   1.399       .  A
C851        C858   1.520       .  S
C852        C853   1.406       .  A
C852        H857   1.084       .  S
C853        C854   1.410       .  A
C854        C855   1.520       .  S
C855        F859   1.384       .  S
C855        F860   1.382       .  S
C855        F861   1.384       .  S
C858        F862   1.383       .  S
C858        F863   1.382       .  S
C858        F864   1.384       .  S
C865        C866   1.404       .  A
C865        C870   1.403       .  A
C865        H872   1.084       .  S
C866        C867   1.419       .  A
C867        C868   1.405       .  A
C867        C874   1.521       .  S
C868        C869   1.402       .  A
C868        H873   1.083       .  S
C869        C870   1.416       .  A
C870        C871   1.520       .  S
C871        F876   1.383       .  S
C871        F877   1.384       .  S
C871       F1995   1.384       .  S
C874        F878   1.383       .  S
C874        F879   1.382       .  S
C874        F880   1.384       .  S
F875       C1991   1.385       .  S
C881        C882   1.406       .  A
C881        C886   1.398       .  A
C881        H888   1.080       .  S
C882        C883   1.420       .  A
C883        C884   1.401       .  A
C883        C890   1.521       .  S
C884        C885   1.406       .  A
C884        H889   1.083       .  S
C885        C886   1.418       .  A
C886        C887   1.524       .  S
C887        F891   1.385       .  S
C887        F892   1.381       .  S
C887        F893   1.383       .  S
C890        F894   1.383       .  S
C890        F895   1.380       .  S
C890        F896   1.385       .  S
C897        C898   1.407       .  A
C897       C2022   1.409       .  A
C897        H904   1.082       .  S
C898        C899   1.426       .  A
C899       C2020   1.411       .  A
C899        C906   1.521       .  S
C900        C901   1.407   1_565  A
C900       C2019   1.409       .  A
C900        H905   1.082       .  S
C901        C902   1.424       .  A
C902       C2017   1.407       .  A
C902        C903   1.519       .  S
C903        F907   1.385       .  S
C903        F908   1.379       .  S
C903        F909   1.383       .  S
C906        F910   1.380       .  S
C906        F911   1.383       .  S
C906        F912   1.385       .  S
C913        C914   1.410       .  A
C913        C918   1.407       .  A
C913        H920   1.083       .  S
C914        C915   1.429       .  A
C915        C916   1.416       .  A
C915        C922   1.519       .  S
C916        C917   1.405       .  A
C916        H921   1.084       .  S
C917        C918   1.419       .  A
C918        C919   1.520       .  S
C919        F923   1.385       .  S
C919        F924   1.380       .  S
C919        F925   1.382       .  S
C922        F926   1.384       .  S
C922        F927   1.383       .  S
C922        F928   1.385       .  S
C929        C930   1.406       .  A
C929        C934   1.407       .  A
C929       H2056   1.085       .  S
C930       C1174   1.490   1_545  S
C930        C931   1.420       .  A
C931        C932   1.412       .  A
C931        C938   1.520   1_545  S
C932        C933   1.408       .  A
C932        H937   1.083       .  S
C933        C934   1.418       .  A
C934        C935   1.517       .  S
C935        F939   1.384       .  S
C935        F940   1.384       .  S
C935        F941   1.382       .  S
H936       C2049   1.085       .  S
C938        F942   1.383       .  S
C938        F943   1.383       .  S
C938        F944   1.384   1_565  S
C945        C946   1.403       .  A
C945        C950   1.405       .  A
C945        H952   1.083       .  S
C946        C947   1.417       .  A
C947        C948   1.404       .  A
C947        C954   1.520       .  S
C948        C949   1.403       .  A
C948        H953   1.081       .  S
C949        C950   1.417       .  A
C950        C951   1.519   1_545  S
C951        F956   1.382       .  S
C951       F2075   1.385       .  S
C951       F2077   1.383       .  S
C954        F958   1.383       .  S
C954        F959   1.382       .  S
C954        F960   1.383       .  S
F955       C2071   1.385       .  S
F957       C2071   1.382       .  S
C961        C962   1.405       .  A
C961        C966   1.405   1_655  A
C961        H968   1.083       .  S
C962        C963   1.417       .  A
C963        C964   1.410   1_655  A
C963        C970   1.518       .  S
C964        C965   1.408       .  A
C964        H969   1.083       .  S
C965        C966   1.421       .  A
C966        C967   1.522       .  S
C967        F971   1.385   1_455  S
C967        F972   1.383       .  S
C967        F973   1.383       .  S
C970        F974   1.382       .  S
C970        F975   1.384       .  S
C970        F976   1.385       .  S
C977        C978   1.400       .  A
C977        C982   1.403       .  A
C977        H984   1.083       .  S
C978        C979   1.427       .  A
C979        C980   1.401       .  A
C979        C986   1.525       .  S
C980        C981   1.401       .  A
C980        H985   1.083       .  S
C981        C982   1.430       .  A
C982        C983   1.526       .  S
C983        F987   1.385       .  S
C983        F988   1.382       .  S
C983        F989   1.383       .  S
C986        F990   1.382       .  S
C986        F991   1.383       .  S
C986        F992   1.385       .  S
C993        C994   1.405       .  A
C993        C998   1.404       .  A
C993       H1000   1.082       .  S
C994        C995   1.425       .  A
C995        C996   1.417       .  A
C995       C1002   1.519       .  S
C996        C997   1.410       .  A
C996       H1001   1.082       .  S
C997        C998   1.424       .  A
C998        C999   1.520       .  S
C999       F1003   1.385       .  S
C999       F1004   1.382       .  S
C999       F1005   1.383       .  S
C1002      F1006   1.383       .  S
C1002      F1007   1.381       .  S
C1002      F1008   1.385       .  S
C1009      C1010   1.403       .  A
C1009      C1014   1.408       .  A
C1009      H1016   1.083       .  S
C1010      C1153   1.492       .  S
C1010      C1011   1.419       .  A
C1011      C1012   1.416       .  A
C1011      C2138   1.517       .  S
C1012      C1013   1.409       .  A
C1012      H1017   1.083       .  S
C1013      C1014   1.420       .  A
C1014      C1015   1.518       .  S
C1015      F1019   1.385       .  S
C1015      F1020   1.383       .  S
C1015      F1021   1.384       .  S
C1018      C2131   1.518       .  S
C1018      F1022   1.384       .  S
C1018      F1023   1.383   1_565  S
C1018      F1024   1.384       .  S
C1025      C1026   1.403       .  A
C1025      C1030   1.402       .  A
C1025      H1032   1.083       .  S
C1026      C1027   1.419       .  A
C1027      C1028   1.405       .  A
C1027      C1034   1.516       .  S
C1028      C1029   1.402       .  A
C1028      H1033   1.083       .  S
C1029      C1030   1.419       .  A
C1030      C1031   1.521       .  S
C1031      F1036   1.383       .  S
C1031      F2155   1.385       .  S
C1031      F2157   1.383       .  S
C1034      F1038   1.382       .  S
C1034      F1039   1.380       .  S
C1034      F1040   1.385       .  S
F1035      C2151   1.385   1_545  S
F1037      C2151   1.382       .  S
C1041      C1042   1.409       .  A
C1041      C1046   1.416   1_655  A
C1041      H1048   1.082       .  S
C1042      C1043   1.425       .  A
C1043      C1044   1.411   1_655  A
C1043      C1050   1.521       .  S
C1044      C1045   1.405       .  A
C1044      H1049   1.082       .  S
C1045      C1046   1.421       .  A
C1046      C1047   1.520       .  S
C1047      F1051   1.384       .  S
C1047      F1052   1.384       .  S
C1047      F1053   1.382       .  S
C1050      F1054   1.383       .  S
C1050      F1055   1.383       .  S
C1050      F1056   1.384       .  S
C1057      C1062   1.409       .  A
C1057      C2178   1.413       .  A
C1057      H1064   1.082       .  S
C1058      C1059   1.421       .  A
C1058      C2177   1.407       .  A
C1059      C1060   1.411       .  A
C1059      C1066   1.519       .  S
C1060      C2181   1.409       .  A
C1060      H1065   1.080       .  S
C1061      C1062   1.411   1_545  A
C1061      C2180   1.399       .  A
C1062      C1063   1.517       .  S
C1063      F1067   1.384       .  S
C1063      F1068   1.382       .  S
C1063      F1069   1.384       .  S
C1066      F1070   1.385       .  S
C1066      F1071   1.382       .  S
C1066      F1072   1.384       .  S
C1073      C1074   1.400       .  A
C1073      C1078   1.404       .  A
C1073      H1080   1.081       .  S
C1074      C1075   1.428       .  A
C1075      C1076   1.404       .  A
C1075      C1082   1.523       .  S
C1076      C1077   1.399       .  A
C1076      H1081   1.082       .  S
C1077      C1078   1.428       .  A
C1078      C1079   1.524       .  S
C1079      F1083   1.385       .  S
C1079      F1084   1.383       .  S
C1079      F1085   1.384       .  S
C1082      F1086   1.381       .  S
C1082      F1087   1.383       .  S
C1082      F1088   1.385       .  S
C1089      C1090   1.409       .  A
C1089      C1094   1.409       .  A
C1089      H1096   1.083       .  S
C1090      C1091   1.427       .  A
C1091      C1092   1.410       .  A
C1091      C1098   1.515       .  S
C1092      C1093   1.400       .  A
C1092      H2217   1.083       .  S
C1093      C1131   1.488   1_545  S
C1093      C1094   1.419       .  A
C1094      C1095   1.520       .  S
C1095      F1099   1.385       .  S
C1095      F1100   1.383   1_545  S
C1095      F1101   1.382       .  S
H1097      C2212   1.082       .  S
C1098      F1102   1.383       .  S
C1098      F1103   1.379       .  S
C1098      F1104   1.385       .  S
C1105      C1106   1.403       .  A
C1105      C1110   1.409       .  A
C1105      H1112   1.085       .  S
C1106      C1107   1.413       .  A
C1107      C1108   1.410       .  A
C1107      C1114   1.517       .  S
C1108      C1109   1.408       .  A
C1108      H1113   1.084       .  S
C1109      C1110   1.418       .  A
C1110      C1111   1.514       .  S
C1111      F1115   1.384       .  S
C1111      F1116   1.382       .  S
C1111      F1117   1.383       .  S
C1114      F1118   1.383       .  S
C1114      F1119   1.383       .  S
C1114      F1120   1.385       .  S
Fe1121     O1137   2.098       .  S
Fe1121     O1127   2.044       .  S
Fe1121     O1134   2.054       .  S
Fe1121     O1126   2.085       .  S
Fe1121     O1132   1.937       .  S
Fe1122     O1125   2.105       .  S
Fe1122     O1129   2.058       .  S
Fe1122     O1133   2.092       .  S
Fe1122     O1138   2.025       .  S
Fe1122     O1132   1.935       .  S
Fe1123     O1141   2.062       .  S
Fe1123     O1128   2.097       .  S
Fe1123     O1135   2.088       .  S
Fe1123     O1124   2.068       .  S
Fe1123     O1132   1.940       .  S
O1124      C1131   1.270       .  A
O1125      C1139   1.275       .  A
O1126      C1131   1.271       .  A
O1127      C1130   1.272       .  A
O1128      C1140   1.277       .  A
O1129      C1142   1.269       .  A
C1130      O1135   1.276       .  A
C1130      C2146   1.472       .  S
O1133      C1136   1.275       .  A
O1134      C1136   1.266       .  A
C1136      C2178   1.502       .  S
O1137      C1142   1.278       .  A
O1138      C1140   1.259       .  A
C1139      O1141   1.268       .  A
C1139      C2229   1.486       .  S
C1140      C2194   1.477       .  S
C1142      C2162   1.501       .  S
Fe1143     O1159   2.113       .  S
Fe1143     O1149   2.049       .  S
Fe1143     O1156   2.057       .  S
Fe1143     O1148   2.102       .  S
Fe1143     O1154   1.943       .  S
Fe1144     O1147   2.108       .  S
Fe1144     O1151   2.053       .  S
Fe1144     O1155   2.100       .  S
Fe1144     O1160   2.026       .  S
Fe1144     O1154   1.939       .  S
Fe1145     O1163   2.050       .  S
Fe1145     O1150   2.097       .  S
Fe1145     O1157   2.091       .  S
Fe1145     O1146   2.069       .  S
Fe1145     O1154   1.941       .  S
O1146      C1153   1.267       .  A
O1147      C1161   1.277       .  A
O1148      C1153   1.275       .  A
O1149      C1152   1.271       .  A
O1150      C1162   1.278       .  A
O1151      C1164   1.269       .  A
C1152      O1157   1.278       .  A
C1152      C2069   1.473       .  S
O1155      C1158   1.277       .  A
O1156      C1158   1.269       .  A
C1158      C2181   1.498       .  S
O1159      C1164   1.277       .  A
O1160      C1162   1.261       .  A
C1161      O1163   1.264       .  A
C1161      C2117   1.507       .  S
C1162      C2098   1.485       .  S
C1164      C2082   1.500       .  S
Fe1165     O1181   2.058       .  S
Fe1165     O1171   2.094       .  S
Fe1165     O1178   2.091       .  S
Fe1165     O1170   2.054       .  S
Fe1165     O1176   1.941       .  S
Fe1166     O1169   2.031       .  S
Fe1166     O1173   2.095       .  S
Fe1166     O1177   2.058       .  S
Fe1166     O1182   2.090       .  S
Fe1166     O1176   1.951       .  S
Fe1167     O1185   2.083       .  S
Fe1167     O1172   2.041       .  S
Fe1167     O1179   2.056       .  S
Fe1167     O1168   2.083       .  S
Fe1167     O1176   1.942       .  S
O1168      C1175   1.275       .  A
O1169      C1183   1.268       .  A
O1170      C1175   1.274       .  A
O1171      C1174   1.272       .  A
O1172      C1184   1.266       .  A
O1173      C1186   1.273       .  A
C1174      O1179   1.264       .  A
C1175      C1986   1.480       .  S
O1177      C1180   1.269       .  A
O1178      C1180   1.272       .  A
C1180      C2165   1.496       .  S
O1181      C1186   1.273       .  A
O1182      C1184   1.270       .  A
C1183      O1185   1.273       .  A
C1183      C2002   1.476       .  S
C1184      C2034   1.501       .  S
C1186      C2018   1.499       .  S
Fe1187     O1203   2.060       .  S
Fe1187     O1193   2.086       .  S
Fe1187     O1200   2.086       .  S
Fe1187     O1192   2.055       .  S
Fe1187     O1198   1.962       .  S
Fe1188     O1191   2.022       .  S
Fe1188     O1195   2.109       .  S
Fe1188     O1199   2.064       .  S
Fe1188     O1204   2.094       .  S
Fe1188     O1198   1.962       .  S
Fe1189     O1207   2.060       .  S
Fe1189     O1194   2.042       .  S
Fe1189     O1201   2.063       .  S
Fe1189     O1190   2.076       .  S
Fe1189     O1198   1.957       .  S
O1190      C1197   1.280       .  A
O1191      C1205   1.263       .  A
O1192      C1197   1.274       .  A
O1193      C1196   1.266       .  A
O1194      C1206   1.264       .  A
O1195      C1208   1.279       .  A
C1196      O1201   1.260       .  A
C1197      C1922   1.482       .  S
O1199      C1202   1.264       .  A
O1200      C1202   1.269       .  A
C1202      C2085   1.500       .  S
O1203      C1208   1.276       .  A
O1204      C1206   1.274       .  A
C1205      O1207   1.271       .  A
C1205      C1970   1.452       .  S
C1206      C1954   1.493       .  S
C1208      C2021   1.503       .  S
Fe1209     O1225   2.090       .  S
Fe1209     O1215   2.054       .  S
Fe1209     O1222   2.063       .  S
Fe1209     O1214   2.080       .  S
Fe1209     O1220   1.961       .  S
Fe1210     O1213   2.088       .  S
Fe1210     O1217   2.048       .  S
Fe1210     O1221   2.111       .  S
Fe1210     O1226   2.021       .  S
Fe1210     O1220   1.952       .  S
Fe1211     O1229   2.044       .  S
Fe1211     O1216   2.065       .  S
Fe1211     O1223   2.079       .  S
Fe1211     O1212   2.052       .  S
Fe1211     O1220   1.955       .  S
O1212      C1219   1.261       .  A
O1213      C1227   1.273       .  A
O1214      C1219   1.266       .  A
O1215      C1218   1.274       .  A
O1216      C1228   1.271       .  A
O1217      C1230   1.260       .  A
C1218      O1223   1.279       .  A
C1218      C1874   1.478       .  S
C1219      C2037   1.488       .  S
O1221      C1224   1.278       .  A
O1222      C1224   1.275       .  A
C1224      C1906   1.507       .  S
O1225      C1230   1.270       .  A
O1226      C1228   1.264       .  A
C1227      O1229   1.264       .  A
C1227      C2053   1.494       .  S
C1228      C1973   1.450       .  S
C1230      C1890   1.491       .  S
Fe1231     O1247   2.099       .  S
Fe1231     O1237   2.061       .  S
Fe1231     O1244   2.066       .  S
Fe1231     O1236   2.100       .  S
Fe1231     O1242   1.946       .  S
Fe1232     O1235   2.100       .  S
Fe1232     O1239   2.069       .  S
Fe1232     O1243   2.101       .  S
Fe1232     O1248   2.035       .  S
Fe1232     O1242   1.949       .  S
Fe1233     O1251   2.046       .  S
Fe1233     O1238   2.073       .  S
Fe1233     O1245   2.075       .  S
Fe1233     O1234   2.055       .  S
Fe1233     O1242   1.949       .  S
O1234      C1241   1.262       .  A
O1235      C1249   1.273       .  A
O1236      C1241   1.274       .  A
O1237      C1240   1.275       .  A
O1238      C1250   1.271       .  A
O1239      C1252   1.269       .  A
C1240      O1245   1.273       .  A
C1240      C1842   1.478       .  S
C1241      C1957   1.495       .  S
O1243      C1246   1.275       .  A
O1244      C1246   1.275       .  A
C1246      C1909   1.506       .  S
O1247      C1252   1.275       .  A
O1248      C1250   1.267       .  A
C1249      O1251   1.266       .  A
C1249      C1938   1.506       .  S
C1250      C2005   1.474       .  S
C1252      C1858   1.508       .  S
Fe1253     O1269   2.056       .  S
Fe1253     O1259   2.084       .  S
Fe1253     O1266   2.087       .  S
Fe1253     O1258   2.055       .  S
Fe1253     O1264   1.950       .  S
Fe1254     O1257   2.022       .  S
Fe1254     O1261   2.100       .  S
Fe1254     O1265   2.059       .  S
Fe1254     O1270   2.113       .  S
Fe1254     O1264   1.951       .  S
Fe1255     O1273   2.102       .  S
Fe1255     O1260   2.061       .  S
Fe1255     O1267   2.073       .  S
Fe1255     O1256   2.107       .  S
Fe1255     O1264   1.942       .  S
O1256      C1263   1.283       .  A
O1257      C1271   1.260       .  A
O1258      C1263   1.275       .  A
O1259      C1262   1.268       .  A
O1260      C1272   1.268       .  A
O1261      C1274   1.275       .  A
C1262      O1267   1.266       .  A
C1262      C2226   1.486       .  S
C1263      C1810   1.478       .  S
O1265      C1268   1.270       .  A
O1266      C1268   1.271       .  A
C1268      C1893   1.490       .  S
O1269      C1274   1.269       .  A
O1270      C1272   1.276       .  A
C1271      O1273   1.283       .  A
C1271      C2101   1.489       .  S
C1272      C2210   1.512       .  S
C1274      C1826   1.476       .  S
Fe1275     O1291   2.054       .  S
Fe1275     O1281   2.094       .  S
Fe1275     O1288   2.105       .  S
Fe1275     O1280   2.049       .  S
Fe1275     O1286   1.935       .  S
Fe1276     O1279   2.025       .  S
Fe1276     O1283   2.102       .  S
Fe1276     O1287   2.062       .  S
Fe1276     O1292   2.108       .  S
Fe1276     O1286   1.942       .  S
Fe1277     O1295   2.088       .  S
Fe1277     O1282   2.050       .  S
Fe1277     O1289   2.075       .  S
Fe1277     O1278   2.090       .  S
Fe1277     O1286   1.945       .  S
O1278      C1285   1.276       .  A
O1279      C1293   1.260       .  A
O1280      C1285   1.274       .  A
O1281      C1284   1.275       .  A
O1282      C1294   1.267       .  A
O1283      C1296   1.277       .  A
C1284      O1289   1.267       .  A
C1284      C2114   1.507       .  S
C1285      C1794   1.474       .  S
O1287      C1290   1.269       .  A
O1288      C1290   1.274       .  A
C1290      C1861   1.507       .  S
O1291      C1296   1.270       .  A
O1292      C1294   1.278       .  A
C1293      O1295   1.277       .  A
C1293      C2197   1.479       .  S
C1294      C2133   1.492       .  S
C1296      C1829   1.490       .  S
Fe1297     O1313   2.051       .  S
Fe1297     O1303   2.084       .  S
Fe1297     O1310   2.092       .  S
Fe1297     O1302   2.052       .  S
Fe1297     O1308   1.953       .  S
Fe1298     O1301   2.026       .  S
Fe1298     O1305   2.096       .  S
Fe1298     O1309   2.062       .  S
Fe1298     O1314   2.088       .  S
Fe1298     O1308   1.960       .  S
Fe1299     O1317   2.068       .  S
Fe1299     O1304   2.060       .  S
Fe1299     O1311   2.071       .  S
Fe1299     O1300   2.072       .  S
Fe1299     O1308   1.961       .  S
O1300      C1307   1.274       .  A
O1301      C1315   1.265       .  A
O1302      C1307   1.271       .  A
O1303      C1306   1.269       .  A
O1304      C1316   1.267       .  A
O1305      C1318   1.272       .  A
C1306      O1311   1.267       .  A
C1307      C2149   1.473       .  S
O1309      C1312   1.270       .  A
O1310      C1312   1.272       .  A
C1312      C1714   1.494       .  S
O1313      C1318   1.270       .  A
O1314      C1316   1.273       .  A
C1315      O1317   1.271       .  A
C1315      C1746   1.458       .  S
C1316      C1778   1.499       .  S
C1318      C1733   1.497       .  S
Fe1319     O1335   2.058       .  S
Fe1319     O1325   2.102       .  S
Fe1319     O1332   2.104       .  S
Fe1319     O1324   2.051       .  S
Fe1319     O1330   1.947       .  S
Fe1320     O1323   2.020       .  S
Fe1320     O1327   2.115       .  S
Fe1320     O1331   2.054       .  S
Fe1320     O1336   2.105       .  S
Fe1320     O1330   1.949       .  S
Fe1321     O1339   2.090       .  S
Fe1321     O1326   2.044       .  S
Fe1321     O1333   2.062       .  S
Fe1321     O1322   2.083       .  S
Fe1321     O1330   1.942       .  S
O1322      C1329   1.275       .  A
O1323      C1337   1.261       .  A
O1324      C1329   1.272       .  A
O1325      C1328   1.275       .  A
O1326      C1338   1.266       .  A
O1327      C1340   1.279       .  A
C1328      O1333   1.265       .  A
C1329      C2066   1.471       .  S
O1331      C1334   1.263       .  A
O1332      C1334   1.276       .  A
C1334      C1650   1.503       .  S
O1335      C1340   1.274       .  A
O1336      C1338   1.274       .  A
C1337      O1339   1.275       .  A
C1337      C1666   1.467       .  S
C1338      C1682   1.504       .  S
C1340      C1730   1.504       .  S
Fe1341     O1357   2.107       .  S
Fe1341     O1347   2.051       .  S
Fe1341     O1354   2.060       .  S
Fe1341     O1346   2.106       .  S
Fe1341     O1352   1.941       .  S
Fe1342     O1345   2.101       .  S
Fe1342     O1349   2.058       .  S
Fe1342     O1353   2.094       .  S
Fe1342     O1358   2.037       .  S
Fe1342     O1352   1.945       .  S
Fe1343     O1361   2.043       .  S
Fe1343     O1348   2.092       .  S
Fe1343     O1355   2.087       .  S
Fe1343     O1344   2.050       .  S
Fe1343     O1352   1.942       .  S
O1344      C1351   1.263       .  A
O1345      C1359   1.276       .  A
O1346      C1351   1.275       .  A
O1347      C1350   1.270       .  A
O1348      C1360   1.277       .  A
O1349      C1362   1.269       .  A
C1350      O1355   1.277       .  A
C1350      C1989   1.479       .  S
O1353      C1356   1.272       .  A
O1354      C1356   1.273       .  A
C1356      C1605   1.499       .  S
O1357      C1362   1.278       .  A
O1358      C1360   1.266       .  A
C1359      O1361   1.260       .  A
C1359      C1618   1.500       .  S
C1360      C1586   1.467       .  S
C1362      C1717   1.497       .  S
Fe1363     O1379   2.070       .  S
Fe1363     O1369   2.061       .  S
Fe1363     O1376   2.068       .  S
Fe1363     O1368   2.064       .  S
Fe1363     O1374   1.955       .  S
Fe1364     O1367   2.083       .  S
Fe1364     O1371   2.073       .  S
Fe1364     O1375   2.089       .  S
Fe1364     O1380   2.031       .  S
Fe1364     O1374   1.955       .  S
Fe1365     O1383   2.053       .  S
Fe1365     O1370   2.076       .  S
Fe1365     O1377   2.075       .  S
Fe1365     O1366   2.066       .  S
Fe1365     O1374   1.959       .  S
O1366      C1373   1.264       .  A
O1367      C1381   1.272       .  A
O1368      C1373   1.262       .  A
O1369      C1372   1.278       .  A
O1370      C1382   1.273       .  A
O1371      C1384   1.269       .  A
C1372      O1377   1.276       .  A
C1372      C1925   1.486       .  S
O1375      C1378   1.273       .  A
O1376      C1378   1.275       .  A
C1378      C1602   1.499       .  S
O1379      C1384   1.265       .  A
O1380      C1382   1.268       .  A
C1381      O1383   1.264       .  A
C1381      C1554   1.490       .  S
C1382      C1570   1.479       .  S
C1384      C1653   1.500       .  S
Fe1385     O1401   2.046       .  S
Fe1385     O1391   2.097       .  S
Fe1385     O1398   2.099       .  S
Fe1385     O1390   2.042       .  S
Fe1385     O1396   1.938       .  S
Fe1386     O1389   2.041       .  S
Fe1386     O1393   2.081       .  S
Fe1386     O1397   2.058       .  S
Fe1386     O1402   2.076       .  S
Fe1386     O1396   1.946       .  S
Fe1387     O1405   2.102       .  S
Fe1387     O1392   2.049       .  S
Fe1387     O1399   2.074       .  S
Fe1387     O1388   2.090       .  S
Fe1387     O1396   1.935       .  S
O1388      C1395   1.277       .  A
O1389      C1403   1.269       .  A
O1390      C1395   1.272       .  A
O1391      C1394   1.273       .  A
O1392      C1404   1.264       .  A
O1393      C1406   1.273       .  A
C1394      O1399   1.269       .  A
C1394      C1621   1.500       .  S
C1395      C1877   1.482       .  S
O1397      C1400   1.266       .  A
O1398      C1400   1.277       .  A
C1400      C1506   1.502       .  S
O1401      C1406   1.267       .  A
O1402      C1404   1.270       .  A
C1403      O1405   1.279       .  A
C1403      C1573   1.481       .  S
C1404      C1637   1.475       .  S
C1406      C1525   1.481       .  S
Fe1407     O1423   2.043       .  S
Fe1407     O1413   2.097       .  S
Fe1407     O1420   2.093       .  S
Fe1407     O1412   2.034       .  S
Fe1407     O1418   1.933       .  S
Fe1408     O1411   2.037       .  S
Fe1408     O1415   2.090       .  S
Fe1408     O1419   2.056       .  S
Fe1408     O1424   2.097       .  S
Fe1408     O1418   1.941       .  S
Fe1409     O1427   2.104       .  S
Fe1409     O1414   2.041       .  S
Fe1409     O1421   2.061       .  S
Fe1409     O1410   2.095       .  S
Fe1409     O1418   1.928       .  S
O1410      C1417   1.279       .  A
O1411      C1425   1.267       .  A
O1412      C1417   1.266       .  A
O1413      C1416   1.274       .  A
O1414      C1426   1.264       .  A
O1415      C1428   1.275       .  A
C1416      O1421   1.266       .  A
C1416      C1557   1.487       .  S
C1417      C1845   1.475       .  S
O1419      C1422   1.268       .  A
O1420      C1422   1.276       .  A
C1422      C1490   1.495       .  S
O1423      C1428   1.267       .  A
O1424      C1426   1.270       .  A
C1425      O1427   1.280       .  A
C1425      C1589   1.476       .  S
C1426      C1541   1.502       .  S
C1428      C1522   1.484       .  S
Fe1429     O1445   2.088       .  S
Fe1429     O1435   2.065       .  S
Fe1429     O1442   2.067       .  S
Fe1429     O1434   2.091       .  S
Fe1429     O1440   1.935       .  S
Fe1430     O1433   2.120       .  S
Fe1430     O1437   2.068       .  S
Fe1430     O1441   2.108       .  S
Fe1430     O1446   2.022       .  S
Fe1430     O1440   1.954       .  S
Fe1431     O1449   2.045       .  S
Fe1431     O1436   2.103       .  S
Fe1431     O1443   2.095       .  S
Fe1431     O1432   2.068       .  S
Fe1431     O1440   1.940       .  S
O1432      C1439   1.267       .  A
O1433      C1447   1.276       .  A
O1434      C1439   1.272       .  A
O1435      C1438   1.274       .  A
O1436      C1448   1.279       .  A
O1437      C1450   1.273       .  A
C1438      O1443   1.277       .  A
C1438      C1813   1.479       .  S
C1439      C1781   1.493       .  S
O1441      C1444   1.279       .  A
O1442      C1444   1.272       .  A
C1444      C1474   1.503       .  S
O1445      C1450   1.271       .  A
O1446      C1448   1.263       .  A
C1447      O1449   1.263       .  A
C1447      C1765   1.496       .  S
C1448      C1669   1.465       .  S
C1450      C1509   1.502       .  S
Fe1451     O1467   2.079       .  S
Fe1451     O1457   2.064       .  S
Fe1451     O1464   2.068       .  S
Fe1451     O1456   2.061       .  S
Fe1451     O1462   1.944       .  S
Fe1452     O1455   2.094       .  S
Fe1452     O1459   2.062       .  S
Fe1452     O1463   2.104       .  S
Fe1452     O1468   2.021       .  S
Fe1452     O1462   1.954       .  S
Fe1453     O1471   2.057       .  S
Fe1453     O1458   2.075       .  S
Fe1453     O1465   2.074       .  S
Fe1453     O1454   2.079       .  S
Fe1453     O1462   1.956       .  S
O1454      C1461   1.268       .  A
O1455      C1469   1.274       .  A
O1456      C1461   1.263       .  A
O1457      C1460   1.277       .  A
O1458      C1470   1.274       .  A
O1459      C1472   1.268       .  A
C1460      O1465   1.276       .  A
C1460      C1797   1.469       .  S
C1461      C1685   1.504       .  S
O1463      C1466   1.279       .  A
O1464      C1466   1.271       .  A
C1466      C1477   1.507       .  S
O1467      C1472   1.267       .  A
O1468      C1470   1.265       .  A
C1469      O1471   1.267       .  A
C1469      C1701   1.492       .  S
C1470      C1749   1.458       .  S
C1472      C1493   1.496       .  S
C1473      C1474   1.408   1_556  A
C1473      C1478   1.414       .  A
C1473      H1480   1.083   1_556  S
C1474      C1475   1.421       .  A
C1475      C1476   1.412   1_554  A
C1475      C1482   1.519       .  S
C1476      C1477   1.410       .  A
C1476      H1481   1.082       .  S
C1477      C1478   1.425       .  A
C1478      C1479   1.520       .  S
C1479      F1483   1.385       .  S
C1479      F1484   1.382       .  S
C1479      F1485   1.384       .  S
C1482      F1486   1.382       .  S
C1482      F1487   1.384       .  S
C1482      F1488   1.385       .  S
C1489      C1490   1.406       .  A
C1489      C1494   1.407       .  A
C1489      H1496   1.083       .  S
C1490      C1491   1.423       .  A
C1491      C1492   1.409       .  A
C1491      C1498   1.521       .  S
C1492      C1493   1.407       .  A
C1492      H1497   1.082       .  S
C1493      C1494   1.423       .  A
C1494      C1495   1.521       .  S
C1495      F1499   1.385       .  S
C1495      F1500   1.383       .  S
C1495      F1501   1.382       .  S
C1498      F1502   1.383       .  S
C1498      F1503   1.384       .  S
C1498      F1504   1.385       .  S
C1505      C1506   1.406       .  A
C1505      C1510   1.408       .  A
C1505      H1512   1.083       .  S
C1506      C1507   1.426       .  A
C1507      C1508   1.413       .  A
C1507      C1514   1.522       .  S
C1508      C1509   1.408       .  A
C1508      H1513   1.082       .  S
C1509      C1510   1.425       .  A
C1510      C1511   1.522       .  S
C1511      F1515   1.385       .  S
C1511      F1516   1.383       .  S
C1511      F1517   1.381       .  S
C1514      F1518   1.383       .  S
C1514      F1519   1.383       .  S
C1514      F1520   1.385       .  S
C1521      C1522   1.406       .  A
C1521      C1526   1.404   1_556  A
C1521      H1528   1.083       .  S
C1522      C1523   1.419       .  A
C1523      C1524   1.402       .  A
C1523      C1530   1.520       .  S
C1524      C1525   1.406   1_556  A
C1524      H1529   1.083   1_556  S
C1525      C1526   1.418       .  A
C1526      C1527   1.521       .  S
C1527      F1531   1.385       .  S
C1527      F1532   1.383       .  S
C1527      F1533   1.383       .  S
C1530      F1534   1.384       .  S
C1530      F1535   1.383       .  S
C1530      F1536   1.385       .  S
C1537      C1538   1.403       .  A
C1537      C1542   1.413       .  A
C1538      C1539   1.417       .  A
C1539      C1540   1.403       .  A
C1539      C1546   1.522       .  S
C1540      C1541   1.410       .  A
C1540      H1545   1.083       .  S
C1541      C1542   1.428       .  A
C1542      C1543   1.520       .  S
C1543      F1547   1.385       .  S
C1543      F1548   1.383       .  S
C1543      F1549   1.382       .  S
C1546      F1550   1.381       .  S
C1546      F1551   1.382       .  S
C1546      F1552   1.385       .  S
C1553      C1554   1.408       .  A
C1553      C1558   1.412       .  A
C1553      H1560   1.084       .  S
C1554      C1555   1.418       .  A
C1555      C1556   1.409       .  A
C1555      C1562   1.517       .  S
C1556      C1557   1.405       .  A
C1556      H1561   1.085       .  S
C1557      C1558   1.417       .  A
C1558      C1559   1.519       .  S
C1559      F1563   1.385       .  S
C1559      F1564   1.383       .  S
C1559      F1565   1.383       .  S
C1562      F1566   1.384       .  S
C1562      F1567   1.381       .  S
C1562      F1568   1.385       .  S
C1569      C1570   1.406       .  A
C1569      C1574   1.396   1_556  A
C1569      H1576   1.082       .  S
C1570      C1571   1.415       .  A
C1571      C1572   1.408   1_556  A
C1571      C1578   1.519       .  S
C1572      C1573   1.409       .  A
C1572      H1577   1.083       .  S
C1573      C1574   1.411       .  A
C1574      C1575   1.508       .  S
C1575      F1579   1.385       .  S
C1575      F1580   1.376       .  S
C1575      F1581   1.382       .  S
C1578      F1582   1.382       .  S
C1578      F1583   1.384       .  S
C1578      F1584   1.385       .  S
C1585      C1586   1.400       .  A
C1585      C1590   1.402       .  A
C1585      H1592   1.084       .  S
C1586      C1587   1.418   1_554  A
C1587      C1588   1.403       .  A
C1587      C1594   1.519       .  S
C1588      C1589   1.404       .  A
C1588      H1593   1.086       .  S
C1589      C1590   1.418   1_556  A
C1590      C1591   1.516       .  S
C1591      F1595   1.383       .  S
C1591      F1596   1.377       .  S
C1591      F1597   1.383   1_554  S
C1594      F1598   1.381   1_556  S
C1594      F1599   1.383       .  S
C1594      F1600   1.384       .  S
C1601      C1602   1.407       .  A
C1601      H1608   1.083       .  S
C1602      C1603   1.427       .  A
C1603      C1610   1.521       .  S
C1604      C1605   1.405   1_545  A
C1604      H1609   1.082       .  S
C1605      C1606   1.425   1_554  A
C1606      C1607   1.520       .  S
C1607      F1611   1.385       .  S
C1607      F1612   1.383   1_556  S
C1607      F1613   1.381       .  S
C1610      F1614   1.383       .  S
C1610      F1615   1.378       .  S
C1610      F1616   1.385   1_556  S
C1617      C1618   1.405       .  A
C1617      C1622   1.408       .  A
C1617      H1624   1.082       .  S
C1618      C1619   1.427       .  A
C1619      C1620   1.413       .  A
C1619      C1626   1.521       .  S
C1620      C1621   1.404       .  A
C1620      H1625   1.082       .  S
C1621      C1622   1.418       .  A
C1622      C1623   1.507       .  S
C1623      F1627   1.385       .  S
C1623      F1628   1.380       .  S
C1623      F1629   1.383       .  S
C1626      F1630   1.384       .  S
C1626      F1631   1.383       .  S
C1626      F1632   1.385       .  S
C1633      C1634   1.403       .  A
C1633      C1638   1.407       .  A
C1634      C1635   1.411       .  A
C1635      C1636   1.404       .  A
C1635      C1642   1.518       .  S
C1636      C1637   1.407       .  A
C1636      H1641   1.083       .  S
C1637      C1638   1.415       .  A
C1638      C1639   1.518       .  S
C1639      F1643   1.385       .  S
C1639      F1644   1.381       .  S
C1639      F1645   1.384       .  S
C1642      F1646   1.383       .  S
C1642      F1647   1.382       .  S
C1642      F1648   1.383       .  S
C1649      C1650   1.406       .  A
C1649      C1654   1.409   1_655  A
C1649      H1656   1.083       .  S
C1650      C1651   1.428       .  A
C1651      C1652   1.412   1_655  A
C1651      C1658   1.522       .  S
C1652      C1653   1.405       .  A
C1652      H1657   1.082       .  S
C1653      C1654   1.425       .  A
C1654      C1655   1.521       .  S
C1655      F1659   1.385       .  S
C1655      F1660   1.383       .  S
C1655      F1661   1.384       .  S
C1658      F1662   1.383       .  S
C1658      F1663   1.384       .  S
C1658      F1664   1.385       .  S
C1665      C1666   1.395       .  A
C1665      C1670   1.402   1_556  A
C1665      H1672   1.085       .  S
C1666      C1667   1.421       .  A
C1667      C1668   1.400   1_556  A
C1667      C1674   1.517       .  S
C1668      C1669   1.395       .  A
C1668      H1673   1.085       .  S
C1669      C1670   1.423       .  A
C1670      C1671   1.520       .  S
C1671      F1675   1.385   1_554  S
C1671      F1676   1.382       .  S
C1671      F1677   1.380       .  S
C1674      F1678   1.381       .  S
C1674      F1679   1.382       .  S
C1674      F1680   1.385       .  S
C1681      C1682   1.408       .  A
C1681      C1686   1.403       .  A
C1681      H1688   1.082       .  S
C1682      C1683   1.420       .  A
C1683      C1684   1.418       .  A
C1683      C1690   1.518       .  S
C1684      C1685   1.412       .  A
C1684      H1689   1.084       .  S
C1685      C1686   1.427       .  A
C1686      C1687   1.526       .  S
C1687      F1691   1.385       .  S
C1687      F1692   1.384       .  S
C1687      F1693   1.383       .  S
C1690      F1694   1.384       .  S
C1690      F1695   1.380       .  S
C1690      F1696   1.385       .  S
C1697      C1698   1.407       .  A
C1697      C1702   1.411       .  A
C1698      C1699   1.418       .  A
C1699      C1700   1.414       .  A
C1699      C1706   1.517       .  S
C1700      C1701   1.408       .  A
C1700      H1705   1.083       .  S
C1701      C1702   1.417       .  A
C1702      C1703   1.517       .  S
C1703      F1707   1.385       .  S
C1703      F1708   1.385       .  S
C1703      F1709   1.382       .  S
C1706      F1710   1.382   1_565  S
C1706      F1711   1.383       .  S
C1706      F1712   1.383       .  S
C1713      C1714   1.405       .  A
C1713      C1718   1.410   1_655  A
C1713      H1720   1.082       .  S
C1714      C1715   1.419       .  A
C1715      C1716   1.412   1_655  A
C1715      C1722   1.518       .  S
C1716      C1717   1.407       .  A
C1716      H1721   1.083       .  S
C1717      C1718   1.425       .  A
C1718      C1719   1.522       .  S
C1719      F1723   1.385       .  S
C1719      F1724   1.383       .  S
C1719      F1725   1.382       .  S
C1722      F1726   1.384       .  S
C1722      F1727   1.382       .  S
C1722      F1728   1.385       .  S
C1729      C1734   1.407       .  A
C1729      H1736   1.087       .  S
C1730      C1731   1.424   1_556  A
C1731      C1732   1.408       .  A
C1731      C1738   1.519       .  S
C1732      H1737   1.089       .  S
C1733      C1734   1.423   1_554  A
C1734      C1735   1.520       .  S
C1735      F1739   1.385       .  S
C1735      F1740   1.380   1_556  S
C1735      F1741   1.383   1_556  S
C1738      F1742   1.378   1_554  S
C1738      F1743   1.383   1_554  S
C1738      F1744   1.385       .  S
C1745      C1746   1.406       .  A
C1745      C1750   1.399   1_554  A
C1745      H1752   1.083       .  S
C1746      C1747   1.410       .  A
C1747      C1748   1.398   1_554  A
C1747      C1754   1.519       .  S
C1748      C1749   1.406       .  A
C1748      H1753   1.082       .  S
C1749      C1750   1.408       .  A
C1750      C1751   1.518       .  S
C1751      F1755   1.383       .  S
C1751      F1756   1.382       .  S
C1751      F1757   1.384       .  S
C1754      F1758   1.382       .  S
C1754      F1759   1.382       .  S
C1754      F1760   1.384       .  S
C1761      C1762   1.416       .  A
C1761      C1766   1.420       .  A
C1762      C1763   1.427       .  A
C1763      C1764   1.406       .  A
C1763      C1770   1.523       .  S
C1764      C1765   1.404       .  A
C1764      H1769   1.083       .  S
C1765      C1766   1.414       .  A
C1766      C1767   1.514       .  S
C1767      F1771   1.384       .  S
C1767      F1772   1.382       .  S
C1767      F1773   1.383       .  S
C1770      F1774   1.383       .  S
C1770      F1775   1.383       .  S
C1770      F1776   1.385       .  S
C1777      C1778   1.411       .  A
C1777      C1782   1.414       .  A
C1777      H1784   1.082       .  S
C1778      C1779   1.420       .  A
C1779      C1780   1.409       .  A
C1779      C1786   1.517       .  S
C1780      C1781   1.406       .  A
C1780      H1785   1.083       .  S
C1781      C1782   1.419       .  A
C1782      C1783   1.519       .  S
C1783      F1787   1.383       .  S
C1783      F1788   1.383       .  S
C1783      F1789   1.382       .  S
C1786      F1790   1.383       .  S
C1786      F1791   1.384       .  S
C1786      F1792   1.385       .  S
C1793      C1794   1.402       .  A
C1793      C1798   1.400       .  A
C1793      H1800   1.086       .  S
C1794      C1795   1.418       .  A
C1795      C1796   1.405       .  A
C1795      C1802   1.519       .  S
C1796      C1797   1.404       .  A
C1796      H1801   1.084       .  S
C1797      C1798   1.416       .  A
C1798      C1799   1.518       .  S
C1799      F1803   1.384       .  S
C1799      F1804   1.381       .  S
C1799      F1805   1.382       .  S
C1802      F1806   1.383       .  S
C1802      F1807   1.381       .  S
C1802      F1808   1.385       .  S
C1809      C1810   1.403       .  A
C1809      C1814   1.407       .  A
C1809      H1816   1.083       .  S
C1810      C1811   1.416       .  A
C1811      C1812   1.410       .  A
C1811      C1818   1.517       .  S
C1812      C1813   1.404       .  A
C1812      H1817   1.083       .  S
C1813      C1814   1.416       .  A
C1814      C1815   1.518       .  S
C1815      F1819   1.385       .  S
C1815      F1820   1.383       .  S
C1815      F1821   1.380       .  S
C1818      F1822   1.382       .  S
C1818      F1823   1.383       .  S
C1818      F1824   1.384       .  S
C1825      C1826   1.397       .  A
C1825      C1830   1.404       .  A
C1825      H1832   1.085       .  S
C1826      C1827   1.412       .  A
C1827      C1828   1.414       .  A
C1827      C1834   1.515       .  S
C1828      C1829   1.409       .  A
C1828      H1833   1.084       .  S
C1829      C1830   1.424       .  A
C1830      C1831   1.520       .  S
C1831      F1835   1.383       .  S
C1831      F1836   1.383       .  S
C1831      F1837   1.385       .  S
C1834      F1838   1.383       .  S
C1834      F1839   1.383       .  S
C1834      F1840   1.385       .  S
C1841      C1842   1.403       .  A
C1841      C1846   1.404       .  A
C1841      H1848   1.084       .  S
C1842      C1843   1.420       .  A
C1843      C1844   1.403       .  A
C1843      C1850   1.519       .  S
C1844      C1845   1.401       .  A
C1844      H1849   1.083       .  S
C1845      C1846   1.420       .  A
C1846      C1847   1.522       .  S
C1847      F1851   1.385       .  S
C1847      F1852   1.382       .  S
C1847      F1853   1.384       .  S
C1850      F1854   1.381       .  S
C1850      F1855   1.382       .  S
C1850      F1856   1.385       .  S
C1857      C1858   1.409       .  A
C1857      C1862   1.413       .  A
C1857      H1864   1.083       .  S
C1858      C1859   1.426       .  A
C1859      C1860   1.413       .  A
C1859      C1866   1.521       .  S
C1860      C1861   1.409       .  A
C1860      H1865   1.082       .  S
C1861      C1862   1.423       .  A
C1862      C1863   1.520       .  S
C1863      F1867   1.385       .  S
C1863      F1868   1.384       .  S
C1863      F1869   1.383       .  S
C1866      F1870   1.383       .  S
C1866      F1871   1.383       .  S
C1866      F1872   1.385       .  S
C1873      C1874   1.404       .  A
C1873      C1878   1.403       .  A
C1873      H1880   1.082       .  S
C1874      C1875   1.418       .  A
C1875      C1876   1.405       .  A
C1875      C1882   1.522       .  S
C1876      C1877   1.407       .  A
C1876      H1881   1.082       .  S
C1877      C1878   1.419       .  A
C1878      C1879   1.520       .  S
C1879      F1883   1.385       .  S
C1879      F1884   1.383       .  S
C1879      F1885   1.382       .  S
C1882      F1886   1.384       .  S
C1882      F1887   1.383       .  S
C1882      F1888   1.385       .  S
C1889      C1890   1.406       .  A
C1889      C1894   1.410       .  A
C1889      H1896   1.084       .  S
C1890      C1891   1.424       .  A
C1891      C1892   1.406       .  A
C1891      C1898   1.523       .  S
C1892      C1893   1.404       .  A
C1892      H1897   1.083       .  S
C1893      C1894   1.421       .  A
C1894      C1895   1.519       .  S
C1895      F1899   1.385       .  S
C1895      F1900   1.384       .  S
C1895      F1901   1.382       .  S
C1898      F1902   1.383       .  S
C1898      F1903   1.384       .  S
C1898      F1904   1.384       .  S
C1905      C1906   1.409       .  A
C1905      C1910   1.413       .  A
C1905      H1912   1.083       .  S
C1906      C1907   1.425       .  A
C1907      C1908   1.411       .  A
C1907      C1914   1.519       .  S
C1908      C1909   1.407       .  A
C1908      H1913   1.082       .  S
C1909      C1910   1.426       .  A
C1910      C1911   1.521       .  S
C1911      F1915   1.385       .  S
C1911      F1916   1.384       .  S
C1911      F1917   1.379       .  S
C1914      F1918   1.383       .  S
C1914      F1919   1.380       .  S
C1914      F1920   1.385       .  S
C1921      C1922   1.403       .  A
C1921      C1926   1.403       .  A
C1921      H1928   1.082       .  S
C1922      C1923   1.420       .  A
C1923      C1924   1.405       .  A
C1923      C1930   1.523       .  S
C1924      C1925   1.407       .  A
C1924      H1929   1.082       .  S
C1925      C1926   1.423       .  A
C1926      C1927   1.524       .  S
C1927      F1931   1.385       .  S
C1927      F1932   1.381       .  S
C1927      F1933   1.382       .  S
C1930      F1934   1.382       .  S
C1930      F1935   1.384       .  S
C1930      F1936   1.385       .  S
C1937      C1938   1.412       .  A
C1937      C1942   1.409       .  A
C1937      H1944   1.082       .  S
C1938      C1939   1.427       .  A
C1939      C1940   1.413       .  A
C1939      C1946   1.519       .  S
C1940      C1941   1.404       .  A
C1941      C1942   1.418       .  A
C1942      C1943   1.521       .  S
C1943      F1947   1.385       .  S
C1943      F1948   1.383       .  S
C1943      F1949   1.383       .  S
C1946      F1950   1.383       .  S
C1946      F1951   1.383       .  S
C1946      F1952   1.385       .  S
C1953      C1954   1.408       .  A
C1953      C1958   1.417       .  A
C1953      H1960   1.082       .  S
C1954      C1955   1.418       .  A
C1955      C1956   1.405       .  A
C1955      C1962   1.516       .  S
C1956      C1957   1.404       .  A
C1956      H1961   1.082       .  S
C1957      C1958   1.424       .  A
C1958      C1959   1.520       .  S
C1959      F1963   1.384       .  S
C1959      F1964   1.384       .  S
C1959      F1965   1.383       .  S
C1962      F1966   1.383       .  S
C1962      F1967   1.384       .  S
C1962      F1968   1.384       .  S
C1969      C1970   1.405       .  A
C1969      C1974   1.398       .  A
C1969      H1976   1.085       .  S
C1970      C1971   1.409       .  A
C1971      C1972   1.398       .  A
C1971      C1978   1.520       .  S
C1972      C1973   1.403       .  A
C1972      H1977   1.085       .  S
C1973      C1974   1.407       .  A
C1974      C1975   1.519       .  S
C1975      F1979   1.384       .  S
C1975      F1980   1.383       .  S
C1975      F1981   1.384       .  S
C1978      F1982   1.384       .  S
C1978      F1983   1.382       .  S
C1978      F1984   1.384       .  S
C1985      C1986   1.403       .  A
C1985      C1990   1.404       .  A
C1985      H1992   1.084       .  S
C1986      C1987   1.420       .  A
C1987      C1988   1.406       .  A
C1987      C1994   1.521       .  S
C1988      C1989   1.404       .  A
C1988      H1993   1.084       .  S
C1989      C1990   1.418       .  A
C1990      C1991   1.520   1_565  S
C1991      F1996   1.383   1_545  S
C1991      F1997   1.383       .  S
C1994      F1998   1.383       .  S
C1994      F1999   1.382       .  S
C1994      F2000   1.385       .  S
C2001      C2002   1.405       .  A
C2001      C2006   1.400       .  A
C2001      H2008   1.083       .  S
C2002      C2003   1.418       .  A
C2003      C2004   1.400       .  A
C2003      C2010   1.519       .  S
C2004      C2005   1.403       .  A
C2004      H2009   1.083       .  S
C2005      C2006   1.417       .  A
C2006      C2007   1.520       .  S
C2007      F2011   1.385       .  S
C2007      F2012   1.378       .  S
C2007      F2013   1.383       .  S
C2010      F2014   1.382       .  S
C2010      F2015   1.378       .  S
C2010      F2016   1.385       .  S
C2017      C2018   1.406   1_545  A
C2017      H2024   1.082       .  S
C2018      C2019   1.426       .  A
C2019      C2026   1.522       .  S
C2020      C2021   1.407       .  A
C2020      H2025   1.083       .  S
C2021      C2022   1.425       .  A
C2022      C2023   1.519       .  S
C2023      F2027   1.385       .  S
C2023      F2028   1.377       .  S
C2023      F2029   1.383       .  S
C2026      F2030   1.380       .  S
C2026      F2031   1.383       .  S
C2026      F2032   1.385       .  S
C2033      C2034   1.409       .  A
C2033      C2038   1.404       .  A
C2033      H2040   1.083       .  S
C2034      C2035   1.428       .  A
C2035      C2036   1.413       .  A
C2035      C2042   1.520       .  S
C2036      C2037   1.405       .  A
C2036      H2041   1.084       .  S
C2037      C2038   1.417       .  A
C2038      C2039   1.520       .  S
C2039      F2043   1.385       .  S
C2039      F2044   1.381       .  S
C2039      F2045   1.383       .  S
C2042      F2046   1.383       .  S
C2042      F2047   1.383       .  S
C2042      F2048   1.385       .  S
C2049      C2050   1.404       .  A
C2049      C2054   1.405       .  A
C2050      C2051   1.422       .  A
C2051      C2052   1.414       .  A
C2051      C2058   1.519       .  S
C2052      C2053   1.409       .  A
C2052      H2057   1.083       .  S
C2053      C2054   1.421       .  A
C2054      C2055   1.518       .  S
C2055      F2059   1.384       .  S
C2055      F2060   1.384       .  S
C2055      F2061   1.383       .  S
C2058      F2062   1.383       .  S
C2058      F2063   1.383       .  S
C2058      F2064   1.385       .  S
C2065      C2066   1.401       .  A
C2065      C2070   1.404       .  A
C2065      H2072   1.084       .  S
C2066      C2067   1.416       .  A
C2067      C2068   1.404       .  A
C2067      C2074   1.519       .  S
C2068      C2069   1.402       .  A
C2068      H2073   1.082       .  S
C2069      C2070   1.417       .  A
C2070      C2071   1.518       .  S
C2071      F2076   1.382       .  S
C2074      F2078   1.383       .  S
C2074      F2079   1.382       .  S
C2074      F2080   1.384       .  S
C2081      C2082   1.408       .  A
C2081      C2086   1.409   1_655  A
C2081      H2088   1.082       .  S
C2082      C2083   1.420       .  A
C2083      C2084   1.414   1_655  A
C2083      C2090   1.518       .  S
C2084      C2085   1.409       .  A
C2084      H2089   1.083       .  S
C2085      C2086   1.424       .  A
C2086      C2087   1.522       .  S
C2087      F2091   1.385   1_455  S
C2087      F2092   1.383       .  S
C2087      F2093   1.383       .  S
C2090      F2094   1.382       .  S
C2090      F2095   1.384       .  S
C2090      F2096   1.385       .  S
C2097      C2098   1.400       .  A
C2097      C2102   1.405       .  A
C2097      H2104   1.082       .  S
C2098      C2099   1.426       .  A
C2099      C2100   1.401       .  A
C2099      C2106   1.524       .  S
C2100      C2101   1.400       .  A
C2100      H2105   1.082       .  S
C2101      C2102   1.433       .  A
C2102      C2103   1.528       .  S
C2103      F2107   1.385       .  S
C2103      F2108   1.382       .  S
C2103      F2109   1.382       .  S
C2106      F2110   1.382       .  S
C2106      F2111   1.384       .  S
C2106      F2112   1.385       .  S
C2113      C2114   1.406       .  A
C2113      C2118   1.406       .  A
C2113      H2120   1.083       .  S
C2114      C2115   1.426       .  A
C2115      C2116   1.418       .  A
C2115      C2122   1.518       .  S
C2116      C2117   1.410       .  A
C2116      H2121   1.083       .  S
C2117      C2118   1.424       .  A
C2118      C2119   1.519       .  S
C2119      F2123   1.386       .  S
C2119      F2124   1.383       .  S
C2119      F2125   1.383       .  S
C2122      F2126   1.383       .  S
C2122      F2127   1.380       .  S
C2122      F2128   1.385       .  S
C2129      C2130   1.404       .  A
C2129      C2134   1.409       .  A
C2129      H2136   1.083       .  S
C2130      C2131   1.416       .  A
C2131      C2132   1.414       .  A
C2132      C2133   1.409       .  A
C2132      H2137   1.082       .  S
C2133      C2134   1.420       .  A
C2134      C2135   1.518       .  S
C2135      F2139   1.384       .  S
C2135      F2140   1.383       .  S
C2135      F2141   1.383       .  S
C2138      F2142   1.383       .  S
C2138      F2143   1.383       .  S
C2138      F2144   1.385       .  S
C2145      C2146   1.403       .  A
C2145      C2150   1.403       .  A
C2145      H2152   1.083       .  S
C2146      C2147   1.415       .  A
C2147      C2148   1.403       .  A
C2147      C2154   1.518       .  S
C2148      C2149   1.404       .  A
C2148      H2153   1.083       .  S
C2149      C2150   1.418       .  A
C2150      C2151   1.521       .  S
C2151      F2156   1.384   1_565  S
C2154      F2158   1.382       .  S
C2154      F2159   1.382       .  S
C2154      F2160   1.385       .  S
C2161      C2162   1.408       .  A
C2161      C2166   1.409   1_655  A
C2161      H2168   1.082       .  S
C2162      C2163   1.426       .  A
C2163      C2164   1.411   1_655  A
C2163      C2170   1.522       .  S
C2164      C2165   1.407       .  A
C2164      H2169   1.081       .  S
C2165      C2166   1.420       .  A
C2166      C2167   1.520       .  S
C2167      F2171   1.385       .  S
C2167      F2172   1.384       .  S
C2167      F2173   1.383       .  S
C2170      F2174   1.383       .  S
C2170      F2175   1.384       .  S
C2170      F2176   1.385       .  S
C2177      C2182   1.408       .  A
C2177      H2184   1.080       .  S
C2178      C2179   1.430   1_565  A
C2179      C2180   1.408       .  A
C2179      C2186   1.524       .  S
C2180      H2185   1.081       .  S
C2181      C2182   1.422       .  A
C2182      C2183   1.521       .  S
C2183      F2187   1.385       .  S
C2183      F2188   1.383       .  S
C2183      F2189   1.384       .  S
C2186      F2190   1.385       .  S
C2186      F2191   1.383       .  S
C2186      F2192   1.383       .  S
C2193      C2194   1.399       .  A
C2193      C2198   1.403       .  A
C2193      H2200   1.082       .  S
C2194      C2195   1.426       .  A
C2195      C2196   1.400       .  A
C2195      C2202   1.524       .  S
C2196      C2197   1.398       .  A
C2196      H2201   1.082       .  S
C2197      C2198   1.428       .  A
C2198      C2199   1.524       .  S
C2199      F2203   1.385       .  S
C2199      F2204   1.383       .  S
C2199      F2205   1.383       .  S
C2202      F2206   1.384       .  S
C2202      F2207   1.382       .  S
C2202      F2208   1.385       .  S
C2209      C2210   1.410       .  A
C2209      C2214   1.414       .  A
C2209      H2216   1.082       .  S
C2210      C2211   1.428       .  A
C2211      C2212   1.416       .  A
C2211      C2218   1.514       .  S
C2212      C2213   1.402       .  A
C2213      C2214   1.420       .  A
C2214      C2215   1.520       .  S
C2215      F2219   1.385       .  S
C2215      F2220   1.384       .  S
C2215      F2221   1.382       .  S
C2218      F2222   1.383       .  S
C2218      F2223   1.378       .  S
C2218      F2224   1.385       .  S
C2225      C2226   1.405       .  A
C2225      C2230   1.412       .  A
C2225      H2232   1.085       .  S
C2226      C2227   1.414       .  A
C2227      C2228   1.410       .  A
C2227      C2234   1.518       .  S
C2228      C2229   1.407       .  A
C2228      H2233   1.084       .  S
C2229      C2230   1.418       .  A
C2230      C2231   1.515       .  S
C2231      F2235   1.384       .  S
C2231      F2236   1.382       .  S
C2231      F2237   1.383       .  S
C2234      F2238   1.383       .  S
C2234      F2239   1.382       .  S
C2234      F2240   1.385       .  S
