geometry optimzed in LAMMPS
_audit_creation_date              2020-12-01 
_audit_creation_method            'lammps2cif' 
_symmetry_space_group_name_H-M    'P1' 
_symmetry_Int_Tables_number       1 
_symmetry_cell_setting            triclinic 
loop_ 
_symmetry_equiv_pos_as_xyz 
  x,y,z 
_cell_length_a                    42.03098558 
_cell_length_b                    37.590745556207345 
_cell_length_c                    91.3808399268316 
_cell_angle_alpha                 90.21471579979739 
_cell_angle_beta                  90.04810647435322 
_cell_angle_gamma                 90.05235938527969 
loop_ 
_atom_site_label 
_atom_site_type_symbol 
_atom_site_fract_x 
_atom_site_fract_y 
_atom_site_fract_z 
_atom_site_charge 
Fe1        Fe  0.97008730  0.22179355  0.44890845     1.65800
Fe2        Fe  0.94748779  0.13623562  0.44942674     1.73200
Fe3        Fe  0.94175872  0.18586243  0.48026656     1.54400
O4          O  0.98639147  0.20458730  0.48565798    -0.81300
O5          O  0.90684471  0.12283111  0.46112987    -0.79600
O6          O  0.99514244  0.24137838  0.46702016    -0.83800
O7          O  0.93193272  0.25196357  0.45443531    -0.78700
O8          O  0.95674637  0.13404581  0.48523807    -0.80400
O9          O  0.91943819  0.15883194  0.43367704    -0.83200
C10         C  0.92181064  0.25933651  0.46713426     0.97600
C11         C  0.00066774  0.23095153  0.48003412     1.05000
O12         O  0.95293504  0.18140825  0.45956170    -1.12200
O13         O  0.98796711  0.14194025  0.43667243    -0.74600
O14         O  0.00990977  0.19366904  0.44293246    -0.78100
O15         O  0.92538767  0.23844988  0.47798884    -0.78800
C16         C  0.01169958  0.16279557  0.43737206     0.96500
O17         O  0.94617485  0.20895143  0.42942729    -0.76700
O18         O  0.97538748  0.11113868  0.46440572    -0.81900
C19         C  0.88920329  0.13751866  0.47069623     0.99100
C20         C  0.97129877  0.10980999  0.47809878     1.05000
O21         O  0.89632090  0.16702657  0.47668710    -0.77600
C22         C  0.92508727  0.18603963  0.42593566     1.03300
Fe23       Fe  0.77163653  0.22234369  0.30942877     1.65800
Fe24       Fe  0.79302031  0.13609085  0.30619363     1.73200
Fe25       Fe  0.80264894  0.19181137  0.27734075     1.54400
O26         O  0.75931637  0.21357515  0.27181340    -0.81300
O27         O  0.83518724  0.12456767  0.29537082    -0.79600
O28         O  0.74694903  0.24477406  0.29179899    -0.83800
O29         O  0.81039486  0.25355790  0.30538288    -0.78700
O30         O  0.78649620  0.14257630  0.26992345    -0.80400
O31         O  0.81824975  0.15439398  0.32387149    -0.83200
C32         C  0.82439978  0.26079377  0.29349134     0.97600
C33         C  0.74291505  0.23709024  0.27832281     1.05000
O34         O  0.78930025  0.18350531  0.29766031    -1.12200
O35         O  0.75068032  0.13929167  0.31764316    -0.74600
O36         O  0.73116628  0.19366917  0.31430048    -0.78100
O37         O  0.82130476  0.24208367  0.28194105    -0.78800
C38         C  0.72800058  0.16148558  0.31818601     0.96500
O39         O  0.79437037  0.20609122  0.32869693    -0.76700
O40         O  0.76780357  0.11405016  0.28944185    -0.81900
C41         C  0.85319368  0.13968368  0.28611524     0.99100
C42         C  0.77251449  0.11626505  0.27580380     1.05000
O43         O  0.84699025  0.17003132  0.28076422    -0.77600
C44         C  0.81294437  0.18074712  0.33221073     1.03300
Fe45       Fe  0.52465971  0.78202826  0.05498976     1.65800
Fe46       Fe  0.54466097  0.86928993  0.05364129     1.73200
Fe47       Fe  0.55313314  0.81702530  0.02342596     1.54400
O48         O  0.57202533  0.76580347  0.02660840    -0.81300
O49         O  0.51974471  0.89423575  0.03749411    -0.79600
O50         O  0.56427700  0.75294937  0.05013957    -0.83800
O51         O  0.50059148  0.76000397  0.03694532    -0.78700
O52         O  0.59755796  0.83864156  0.02694473    -0.80400
O53         O  0.50188744  0.86359784  0.06471648    -0.83200
C54         C  0.49502774  0.76986838  0.02386057     0.97600
C55         C  0.57653986  0.74617203  0.03777086     1.05000
O56         O  0.54101050  0.82282990  0.04402947    -1.12200
O57         O  0.56987346  0.84952544  0.07103664    -0.74600
O58         O  0.54700488  0.79683108  0.07463047    -0.78100
O59         O  0.50942807  0.79586262  0.01803720    -0.78800
C60         C  0.56518179  0.82209545  0.07874743     0.96500
O61         O  0.48352956  0.80880652  0.06047455    -0.76700
O62         O  0.58722730  0.88177325  0.04314201    -0.81900
C63         C  0.52354915  0.89338733  0.02376997     0.99100
C64         C  0.60470704  0.86769844  0.03332482     1.05000
O65         O  0.53656219  0.86724894  0.01721349    -0.77600
C66         C  0.47967236  0.84060397  0.06486442     1.03300
Fe67       Fe  0.71870614  0.78923434  0.19440513     1.65800
Fe68       Fe  0.69926324  0.87534800  0.19911481     1.73200
Fe69       Fe  0.69308632  0.81809338  0.22738624     1.54400
O70         O  0.67420519  0.76751464  0.22278062    -0.81300
O71         O  0.72884867  0.89493188  0.21484894    -0.79600
O72         O  0.67925978  0.75973207  0.19866595    -0.83800
O73         O  0.74368561  0.76320666  0.21123850    -0.78700
O74         O  0.64850999  0.84011338  0.22546310    -0.80400
O75         O  0.73915531  0.87078105  0.18578035    -0.83200
C76         C  0.75042290  0.77119392  0.22445616     0.97600
C77         C  0.66892717  0.74999835  0.21103602     1.05000
O78         O  0.70327682  0.82745352  0.20695218    -1.12200
O79         O  0.66998814  0.85853016  0.18246864    -0.74600
O80         O  0.69530359  0.80893844  0.17578498    -0.78100
O81         O  0.73700725  0.79659785  0.23114010    -0.78800
C82         C  0.67529227  0.83374598  0.17331936     0.96500
O83         O  0.75941431  0.81697150  0.18973620    -0.76700
O84         O  0.65959692  0.88793567  0.21206715    -0.81900
C85         C  0.72615547  0.89212920  0.22857822     0.99100
C86         C  0.64237455  0.87162114  0.22137003     1.05000
O87         O  0.71099816  0.86682591  0.23463269    -0.77600
C88         C  0.76219839  0.84890254  0.18552279     1.03300
Fe89       Fe  0.26936113  0.21866010  0.80937536     1.65800
Fe90       Fe  0.29064390  0.13267428  0.80564332     1.73200
Fe91       Fe  0.29765966  0.18837250  0.77685737     1.54400
O92         O  0.25337198  0.20853039  0.77233151    -0.81300
O93         O  0.33124992  0.12090980  0.79345383    -0.79600
O94         O  0.24393354  0.24183981  0.79208205    -0.83800
O95         O  0.30781518  0.25007223  0.80495118    -0.78700
O96         O  0.28155397  0.13810201  0.76982153    -0.80400
O97         O  0.31840663  0.15101295  0.82249642    -0.83200
C98         C  0.31953062  0.25871527  0.79269110     0.97600
C99         C  0.23834938  0.23314928  0.77882406     1.05000
O100        O  0.28626929  0.18009101  0.79732877    -1.12200
O101        O  0.25016778  0.13626506  0.81847853    -0.74600
O102        O  0.22925692  0.18969534  0.81448208    -0.78100
O103        O  0.31547686  0.23999783  0.78112810    -0.78800
C104        C  0.22692925  0.15775951  0.81880053     0.96500
O105        O  0.29320428  0.20144128  0.82823998    -0.76700
O106        O  0.26242900  0.11139100  0.78967835    -0.81900
C107        C  0.34894055  0.13676354  0.78423870     0.99100
C108        C  0.26639944  0.11284308  0.77598250     1.05000
O109        O  0.34265069  0.16771429  0.77952379    -0.77600
C110        C  0.31294427  0.17670484  0.83117874     1.03300
Fe111      Fe  0.46860467  0.23066715  0.94710611     1.65800
Fe112      Fe  0.44893614  0.14367585  0.94956110     1.73200
Fe113      Fe  0.44429228  0.19694852  0.97973994     1.54400
O114        O  0.48740006  0.22089637  0.98391058    -0.81300
O115        O  0.40823188  0.13052226  0.96137846    -0.79600
O116        O  0.49414544  0.25415596  0.96409973    -0.83800
O117        O  0.42920194  0.25975184  0.95265083    -0.78700
O118        O  0.46417841  0.14814148  0.98572824    -0.80400
O119        O  0.42095299  0.16322140  0.93297450    -0.83200
C120        C  0.41726790  0.26601991  0.96516535     0.97600
C121        C  0.50066397  0.24645155  0.97728488     1.05000
O122        O  0.45369814  0.19040828  0.95885026    -1.12200
O123        O  0.49005349  0.14924487  0.93715177    -0.74600
O124        O  0.50940511  0.20364467  0.94118783    -0.78100
O125        O  0.42288043  0.24672377  0.97633842    -0.78800
C126        C  0.51273066  0.17166949  0.93691453     0.96500
O127        O  0.44472653  0.21474761  0.92815708    -0.76700
O128        O  0.47636059  0.11950226  0.96505935    -0.81900
C129        C  0.39260143  0.14381697  0.97199287     0.99100
C130        C  0.47613105  0.12175580  0.97888791     1.05000
O131        O  0.40037206  0.17290921  0.97814012    -0.77600
C132        C  0.42537313  0.19000206  0.92483461     1.03300
Fe133      Fe  0.21545119  0.78135398  0.69309799     1.65800
Fe134      Fe  0.20229376  0.86941431  0.69649111     1.73200
Fe135      Fe  0.19262813  0.81573222  0.72573810     1.54400
O136        O  0.17247627  0.76524191  0.72246447    -0.81300
O137        O  0.23244843  0.88880889  0.71211502    -0.79600
O138        O  0.17515961  0.75415874  0.69855224    -0.83800
O139        O  0.23996964  0.75733332  0.71007908    -0.78700
O140        O  0.14890890  0.83930932  0.72295336    -0.80400
O141        O  0.24217439  0.86121673  0.68351093    -0.83200
C142        C  0.24757266  0.76531878  0.72315863     0.97600
C143        C  0.16655203  0.74573336  0.71135985     1.05000
O144        O  0.20324927  0.82207838  0.70507523    -1.12200
O145        O  0.17251087  0.85333926  0.68008753    -0.74600
O146        O  0.19190421  0.79970948  0.67461831    -0.78100
O147        O  0.23582417  0.79185133  0.72992106    -0.78800
C148        C  0.17448493  0.82643923  0.67175839     0.96500
O149        O  0.25724745  0.80514913  0.68698441    -0.76700
O150        O  0.16270153  0.88489608  0.70870640    -0.81900
C151        C  0.22747944  0.88921618  0.72574213     0.99100
C152        C  0.14405608  0.87028811  0.71788085     1.05000
O153        O  0.21114958  0.86529426  0.73212564    -0.77600
C154        C  0.26274190  0.83653806  0.68268972     1.03300
Fe155      Fe  0.01868926  0.77744746  0.55703139     1.65800
Fe156      Fe  0.04039436  0.86334391  0.55421544     1.73200
Fe157      Fe  0.04406191  0.80968120  0.52471545     1.54400
O158        O  0.06037723  0.75738260  0.52777065    -0.81300
O159        O  0.01069028  0.88553918  0.53926321    -0.79600
O160        O  0.05644348  0.74633106  0.55164308    -0.83800
O161        O  0.99225821  0.75573627  0.53986311    -0.78700
O162        O  0.08967585  0.82782693  0.52719722    -0.80400
O163        O  0.00075446  0.85924771  0.56777300    -0.83200
C164        C  0.98498119  0.76626255  0.52707175     0.97600
C165        C  0.06557712  0.73785624  0.53890613     1.05000
O166        O  0.03479607  0.81665509  0.54538342    -1.12200
O167        O  0.06968669  0.84329665  0.57004678    -0.74600
O168        O  0.04373483  0.79321449  0.57556079    -0.78100
O169        O  0.99884403  0.79198761  0.52087243    -0.78800
C170        C  0.06450296  0.81692902  0.57834016     0.96500
O171        O  0.97949561  0.80620625  0.56298904    -0.76700
O172        O  0.08000448  0.87525434  0.54117115    -0.81900
C173        C  0.01367489  0.88508012  0.52552210     0.99100
C174        C  0.09678755  0.85874652  0.53170413     1.05000
O175        O  0.02891467  0.86076196  0.51877582    -0.77600
C176        C  0.97744068  0.83767598  0.56788749     1.03300
Fe177      Fe  0.21818331  0.97117583  0.05883152     1.65800
Fe178      Fe  0.19829400  0.88564880  0.05331039     1.73200
Fe179      Fe  0.19514172  0.94388108  0.02505994     1.54400
O180        O  0.17484835  0.99390513  0.02973983    -0.81300
O181        O  0.22930591  0.86645362  0.03818100    -0.79600
O182        O  0.17952047  0.00160691  0.05392174    -0.83800
O183        O  0.24493275  0.99743378  0.04285460    -0.78700
O184        O  0.15049975  0.92130524  0.02582401    -0.80400
O185        O  0.23673705  0.88905613  0.06756017    -0.83200
C186        C  0.25214919  0.99156080  0.02953559     0.97600
C187        C  0.16891302  0.01104343  0.04153146     1.05000
O188        O  0.20349929  0.93373829  0.04570113    -1.12200
O189        O  0.16755237  0.90212224  0.06938955    -0.74600
O190        O  0.19286523  0.95119745  0.07673676    -0.78100
O191        O  0.23904015  0.96708206  0.02208627    -0.78800
C192        C  0.17248079  0.92654918  0.07873542     0.96500
O193        O  0.25814904  0.94249251  0.06415912    -0.76700
O194        O  0.15983871  0.87377746  0.03962676    -0.81900
C195        C  0.22860908  0.86960234  0.02442480     0.99100
C196        C  0.14342123  0.89020819  0.03008453     1.05000
O197        O  0.21441268  0.89515553  0.01797153    -0.77600
C198        C  0.26017829  0.91033272  0.06821149     1.03300
Fe199      Fe  0.02402738  0.97702086  0.19582950     1.65800
Fe200      Fe  0.04396929  0.89076399  0.19877725     1.73200
Fe201      Fe  0.04498304  0.94438420  0.22869092     1.54400
O202        O  0.06319717  0.99610332  0.22593279    -0.81300
O203        O  0.01375958  0.86766749  0.21339578    -0.79600
O204        O  0.06293930  0.00597402  0.20187503    -0.83800
O205        O  0.99770229  0.00060058  0.21258716    -0.78700
O206        O  0.09026852  0.92486648  0.22721218    -0.80400
O207        O  0.00489657  0.89597580  0.18502155    -0.83200
C208        C  0.98885518  0.99156670  0.22535127     0.97600
C209        C  0.07080431  0.01469080  0.21481064     1.05000
O210        O  0.03797939  0.93737044  0.20775844    -1.12200
O211        O  0.07407121  0.91008811  0.18293679    -0.74600
O212        O  0.04893405  0.96034182  0.17732187    -0.78100
O213        O  0.99998833  0.96441632  0.23173705    -0.78800
C214        C  0.06905566  0.93607308  0.17442781     0.96500
O215        O  0.98413808  0.94944577  0.18961001    -0.76700
O216        O  0.08298778  0.87884845  0.21206629    -0.81900
C217        C  0.01466619  0.86848876  0.22721152     0.99100
C218        C  0.09858143  0.89491775  0.22208785     1.05000
O219        O  0.02800954  0.89364665  0.23433301    -0.77600
C220        C  0.98175929  0.91774961  0.18490042     1.03300
Fe221      Fe  0.96745082  0.53496590  0.30638467     1.65800
Fe222      Fe  0.94293161  0.61942685  0.30351559     1.73200
Fe223      Fe  0.94325138  0.56638184  0.27371503     1.54400
O224        O  0.98922498  0.54997181  0.27039620    -0.81300
O225        O  0.90373040  0.62990456  0.29004510    -0.79600
O226        O  0.99431525  0.51267684  0.28908086    -0.83800
O227        O  0.92976553  0.50417208  0.30084884    -0.78700
O228        O  0.95719598  0.61847871  0.26809472    -0.80400
O229        O  0.91346882  0.59774320  0.31895239    -0.83200
C230        C  0.92165850  0.49476015  0.28805760     0.97600
C231        C  0.00226516  0.52334561  0.27634067     1.05000
O232        O  0.95089691  0.57351992  0.29454061    -1.12200
O233        O  0.98201756  0.61621096  0.31747790    -0.74600
O234        O  0.00606946  0.56492111  0.31220361    -0.78100
O235        O  0.92796459  0.51337655  0.27674275    -0.78800
C236        C  0.00649520  0.59632404  0.31732690     0.96500
O237        O  0.94235431  0.55065134  0.32534709    -0.76700
O238        O  0.97238209  0.64378809  0.28903349    -0.81900
C239        C  0.88839199  0.61323990  0.28009766     0.99100
C240        C  0.97015280  0.64388900  0.27525082     1.05000
O241        O  0.89696044  0.58293626  0.27543376    -0.77600
C242        C  0.92049072  0.57338398  0.32795510     1.03300
Fe243      Fe  0.77359999  0.52526511  0.44668208     1.65800
Fe244      Fe  0.79055908  0.61284218  0.44798724     1.73200
Fe245      Fe  0.79906380  0.56215878  0.47817857     1.54400
O246        O  0.75511682  0.54194057  0.48324110    -0.81300
O247        O  0.83096708  0.62795681  0.45999221    -0.79600
O248        O  0.74945086  0.50354282  0.46475417    -0.83800
O249        O  0.81427302  0.49903620  0.45190094    -0.78700
O250        O  0.78310691  0.61357563  0.48380294    -0.80400
O251        O  0.81905297  0.59325084  0.43147313    -0.83200
C252        C  0.82570214  0.49276619  0.46441845     0.97600
C253        C  0.74224315  0.51467232  0.47755582     1.05000
O254        O  0.78763832  0.56682056  0.45758077    -1.12200
O255        O  0.74973169  0.60457211  0.43547880    -0.74600
O256        O  0.73221680  0.54997919  0.44062455    -0.78100
O257        O  0.81797279  0.51071041  0.47571856    -0.78800
C258        C  0.72807302  0.58085780  0.43540862     0.96500
O259        O  0.79645661  0.54044591  0.42735472    -0.76700
O260        O  0.76198613  0.63572065  0.46347561    -0.81900
C261        C  0.84902167  0.61261048  0.46925694     0.99100
C262        C  0.76767424  0.63768581  0.47705062     1.05000
O263        O  0.84332238  0.58179504  0.47412030    -0.77600
C264        C  0.81516643  0.56553765  0.42367377     1.03300
Fe265      Fe  0.52391150  0.97391650  0.69398961     1.65800
Fe266      Fe  0.53855151  0.88714830  0.69909507     1.73200
Fe267      Fe  0.54723619  0.94512662  0.72710418     1.54400
O268        O  0.56636546  0.99587670  0.72254619    -0.81300
O269        O  0.50848320  0.86990789  0.71497128    -0.79600
O270        O  0.56511197  0.00004440  0.69827838    -0.83800
O271        O  0.50020153  0.00161227  0.71080834    -0.78700
O272        O  0.59156326  0.92265571  0.72478806    -0.80400
O273        O  0.49852325  0.89343981  0.68573701    -0.83200
C274        C  0.49196181  0.99406325  0.72387704     0.97600
C275        C  0.57378730  0.01156312  0.71065806     1.05000
O276        O  0.53672702  0.93535461  0.70669843    -1.12200
O277        O  0.56848011  0.90121833  0.68243488    -0.74600
O278        O  0.54609954  0.95217255  0.67553279    -0.78100
O279        O  0.50334172  0.96754045  0.73065580    -0.78800
C280        C  0.56459344  0.92590430  0.67321144     0.96500
O281        O  0.48202892  0.94925077  0.68902301    -0.76700
O282        O  0.57812634  0.87411380  0.71205552    -0.81900
C283        C  0.51448178  0.87045054  0.72851539     0.99100
C284        C  0.59662696  0.89069470  0.72084749     1.05000
O285        O  0.53000457  0.89578650  0.73450171    -0.77600
C286        C  0.47733786  0.91756505  0.68478373     1.03300
Fe287      Fe  0.71342912  0.97361605  0.55720791     1.65800
Fe288      Fe  0.70368793  0.88495070  0.55493950     1.73200
Fe289      Fe  0.69271374  0.93666094  0.52515764     1.54400
O290        O  0.67025716  0.98628862  0.52805273    -0.81300
O291        O  0.73467100  0.86568645  0.53961377    -0.79600
O292        O  0.67062939  0.99548510  0.55211239    -0.83800
O293        O  0.73514637  0.99952395  0.53968439    -0.78700
O294        O  0.64995514  0.91210329  0.52852830    -0.80400
O295        O  0.74335903  0.89709215  0.56782153    -0.83200
C296        C  0.74391364  0.99082368  0.52682456     0.97600
C297        C  0.66111410  0.00326566  0.53939813     1.05000
O298        O  0.70337597  0.93160886  0.54577023    -1.12200
O299        O  0.67290550  0.90075015  0.57121409    -0.74600
O300        O  0.69227721  0.95463737  0.57616493    -0.78100
O301        O  0.73493099  0.96211040  0.52072610    -0.78800
C302        C  0.67460575  0.92826897  0.57924556     0.96500
O303        O  0.75685000  0.95317782  0.56281306    -0.76700
O304        O  0.66467385  0.86654916  0.54258269    -0.62700
C305        C  0.73013222  0.86447033  0.52594245     0.99100
C306        C  0.64553176  0.88107802  0.53353712     1.05000
O307        O  0.71319933  0.88749629  0.51928432    -0.77600
C308        C  0.76343540  0.92256414  0.56772588     1.03300
Fe309      Fe  0.46756181  0.53320867  0.80513562     1.65800
Fe310      Fe  0.44667449  0.61936150  0.80173173     1.73200
Fe311      Fe  0.44301019  0.56413035  0.77212710     1.54400
O312        O  0.48702536  0.54178285  0.76826743    -0.81300
O313        O  0.40678437  0.63083549  0.78940456    -0.79600
O314        O  0.49408855  0.50979572  0.78844969    -0.83800
O315        O  0.42935927  0.50218866  0.79962131    -0.78700
O316        O  0.46131622  0.61364443  0.76584072    -0.80400
O317        O  0.41775080  0.60039270  0.81802103    -0.83200
C318        C  0.41820545  0.49427476  0.78711385     0.97600
C319        C  0.50058528  0.51686015  0.77518842     1.05000
O320        O  0.45221267  0.57219096  0.79295235    -1.12200
O321        O  0.48648692  0.61559103  0.81497203    -0.74600
O322        O  0.50726219  0.56180161  0.81135997    -0.78100
O323        O  0.42318630  0.51336307  0.77580105    -0.78800
C324        C  0.50936060  0.59370681  0.81587882     0.96500
O325        O  0.44237128  0.54978164  0.82355665    -0.76700
O326        O  0.47507473  0.64239578  0.78629588    -0.81900
C327        C  0.39050930  0.61593313  0.77940797     0.99100
C328        C  0.47385315  0.64007913  0.77247466     1.05000
O329        O  0.39829821  0.58639245  0.77364917    -0.77600
C330        C  0.42224935  0.57408526  0.82639795     1.03300
Fe331      Fe  0.26954850  0.53982922  0.94216181     1.65800
Fe332      Fe  0.29019842  0.62569816  0.94585694     1.73200
Fe333      Fe  0.29702170  0.57031272  0.97451911     1.54400
O334        O  0.25209456  0.55206301  0.97885332    -0.81300
O335        O  0.33102729  0.63749147  0.95845320    -0.79600
O336        O  0.24519806  0.51606538  0.95967473    -0.83800
O337        O  0.30874883  0.50991966  0.94643316    -0.78700
O338        O  0.28277391  0.62150362  0.98142299    -0.80400
O339        O  0.31808620  0.60804445  0.92903142    -0.83200
C340        C  0.31811287  0.49971960  0.95890151     0.97600
C341        C  0.23845015  0.52596006  0.97267860     1.05000
O342        O  0.28604003  0.57845371  0.95408813    -1.12200
O343        O  0.24941871  0.62133628  0.93293396    -0.74600
O344        O  0.22900294  0.56776861  0.93736369    -0.78100
O345        O  0.31304375  0.51784784  0.97052642    -0.78800
C346        C  0.22631087  0.59943480  0.93280098     0.96500
O347        O  0.29222235  0.55803140  0.92317174    -0.76700
O348        O  0.26143320  0.64578667  0.96160808    -0.81900
C349        C  0.34882214  0.62034137  0.96732721     0.99100
C350        C  0.26699021  0.64609845  0.97515879     1.05000
O351        O  0.34231622  0.58890542  0.97136118    -0.77600
C352        C  0.31173821  0.58298278  0.92017242     1.03300
Fe353      Fe  0.72376517  0.47159720  0.06141206     1.65800
Fe354      Fe  0.69918479  0.38608963  0.05935760     1.73200
Fe355      Fe  0.69380632  0.43962899  0.02960371     1.54400
O356        O  0.67741240  0.49190902  0.03304257    -0.81300
O357        O  0.72472213  0.36071673  0.04350043    -0.79600
O358        O  0.68619035  0.50366668  0.05664156    -0.83800
O359        O  0.74927353  0.49220510  0.04370041    -0.78700
O360        O  0.64845790  0.42074506  0.03280513    -0.80400
O361        O  0.74109339  0.38894720  0.07146825    -0.83200
C362        C  0.75403455  0.48267051  0.03049535     0.97600
C363        C  0.67425069  0.51158895  0.04435321     1.05000
O364        O  0.70542016  0.43244961  0.05011597    -1.12200
O365        O  0.67305425  0.40787700  0.07605666    -0.74600
O366        O  0.70005563  0.45776248  0.08062999    -0.78100
O367        O  0.73835093  0.45794182  0.02442544    -0.78800
C368        C  0.67923097  0.43465153  0.08404857     0.96500
O369        O  0.76290077  0.44175833  0.06682636    -0.76700
O370        O  0.65739956  0.37528975  0.04786033    -0.81900
C371        C  0.72151819  0.36253242  0.02975070     0.99100
C372        C  0.64076024  0.39083408  0.03816119     1.05000
O373        O  0.70858555  0.38889321  0.02339001    -0.77600
C374        C  0.76477751  0.41001629  0.07140367     1.03300
Fe375      Fe  0.52562136  0.47950763  0.19815646     1.65800
Fe376      Fe  0.53906899  0.39187249  0.20252749     1.73200
Fe377      Fe  0.54513757  0.44777463  0.23152748     1.54400
O378        O  0.56753023  0.49691764  0.22785564    -0.81300
O379        O  0.50747359  0.37337010  0.21756683    -0.79600
O380        O  0.56646024  0.50535082  0.20371150    -0.83800
O381        O  0.50084547  0.50676977  0.21447519    -0.78700
O382        O  0.58848347  0.42306841  0.23042480    -0.80400
O383        O  0.50015669  0.39961759  0.18868451    -0.83200
C384        C  0.49200456  0.49969216  0.22744573     0.97600
C385        C  0.57577088  0.51399260  0.21643235     1.05000
O386        O  0.53685927  0.43969993  0.21073518    -1.12200
O387        O  0.57021570  0.40700664  0.18643138    -0.74600
O388        O  0.54925500  0.45907826  0.17997417    -0.78100
O389        O  0.50223161  0.47285653  0.23436917    -0.78800
C390        C  0.56730055  0.43259409  0.17752962     0.96500
O391        O  0.48385531  0.45548276  0.19204191    -0.76700
O392        O  0.57752069  0.37675821  0.21593679    -0.81900
C393        C  0.50921827  0.37502203  0.23135125     0.99100
C394        C  0.59428901  0.39184988  0.22584072     1.05000
O395        O  0.52429343  0.39962865  0.23803786    -0.77600
C396        C  0.47917990  0.42391270  0.18759679     1.03300
Fe397      Fe  0.26998545  0.02736622  0.44690844     1.65800
Fe398      Fe  0.29288631  0.11299766  0.44894336     1.73200
Fe399      Fe  0.29521535  0.06137333  0.47908885     1.54400
O400        O  0.25003202  0.04286722  0.48309483    -0.81300
O401        O  0.33258953  0.12543362  0.46176034    -0.79600
O402        O  0.24421341  0.00577131  0.46425477    -0.83800
O403        O  0.30816270  0.99671804  0.45243930    -0.78700
O404        O  0.28003792  0.11324762  0.48455439    -0.80400
O405        O  0.32181310  0.09119727  0.43323162    -0.83200
C406        C  0.31761282  0.98901081  0.46523534     0.97600
C407        C  0.23695655  0.01614016  0.47709217     1.05000
O408        O  0.28634635  0.06715805  0.45831671    -1.12200
O409        O  0.25325802  0.10802762  0.43549512    -0.74600
O410        O  0.23056182  0.05630154  0.44115058    -0.78100
O411        O  0.31211267  0.00896280  0.47630011    -0.78800
C412        C  0.22920939  0.08754868  0.43598217     0.96500
O413        O  0.29408607  0.04224533  0.42793021    -0.76700
O414        O  0.26391680  0.13773249  0.46367267    -0.81900
C415        C  0.34869060  0.10967004  0.47161453     0.99100
C416        C  0.26675330  0.13838141  0.47744096     1.05000
O417        O  0.34079894  0.07958495  0.47666248    -0.77600
C418        C  0.31527701  0.06522148  0.42484145     1.03300
Fe419      Fe  0.46546277  0.03555172  0.30710110     1.65800
Fe420      Fe  0.44526500  0.12198195  0.30641795     1.73200
Fe421      Fe  0.43935111  0.07252780  0.27561687     1.54400
O422        O  0.48396228  0.05340087  0.27060157    -0.81300
O423        O  0.40450910  0.13572783  0.29467369    -0.79600
O424        O  0.49054249  0.01531041  0.28899750    -0.83800
O425        O  0.42612924  0.00709528  0.30129411    -0.78700
O426        O  0.45468209  0.12446885  0.27073411    -0.80400
O427        O  0.41701684  0.10062943  0.32218315    -0.83200
C428        C  0.41592577  0.00036923  0.28852178     0.97600
C429        C  0.49735241  0.02639860  0.27618128     1.05000
O430        O  0.44994540  0.07662738  0.29638557    -1.12200
O431        O  0.48570451  0.11519697  0.31917234    -0.74600
O432        O  0.50598181  0.06220570  0.31343257    -0.78100
O433        O  0.42196667  0.02028389  0.27760356    -0.78800
C434        C  0.50861780  0.09316629  0.31889597     0.96500
O435        O  0.44202098  0.04954162  0.32662026    -0.76700
O436        O  0.47369753  0.14657093  0.29159251    -0.81900
C437        C  0.38680707  0.12068628  0.28516860     0.99100
C438        C  0.46927933  0.14857633  0.27796134     1.05000
O439        O  0.39413274  0.09135206  0.27913688    -0.77600
C440        C  0.42260073  0.07408882  0.33024484     1.03300
Fe441      Fe  0.02695273  0.47219239  0.69505599     1.65800
Fe442      Fe  0.04288483  0.38506468  0.69935109     1.73200
Fe443      Fe  0.04919718  0.44181422  0.72817221     1.54400
O444        O  0.07015047  0.49163532  0.72410552    -0.81300
O445        O  0.01333452  0.36527798  0.71490717    -0.79600
O446        O  0.06772702  0.49900065  0.69992718    -0.83800
O447        O  0.00230061  0.49880480  0.71176909    -0.78700
O448        O  0.09323437  0.41887941  0.72633374    -0.80400
O449        O  0.00265607  0.39111054  0.68614357    -0.83200
C450        C  0.99410432  0.49150788  0.72484148     0.97600
C451        C  0.07826979  0.50770161  0.71241456     1.05000
O452        O  0.03978622  0.43293352  0.70753150    -1.12200
O453        O  0.07250026  0.40099660  0.68277491    -0.74600
O454        O  0.05007739  0.45240946  0.67652869    -0.78100
O455        O  0.00565367  0.46526316  0.73171195    -0.78800
C456        C  0.06869528  0.42649071  0.67391165     0.96500
O457        O  0.98552864  0.44667842  0.68958828    -0.76700
O458        O  0.08247496  0.37178568  0.71224618    -0.81900
C459        C  0.01638917  0.36707840  0.72864838     0.99100
C460        C  0.09945188  0.38769100  0.72184398     1.05000
O461        O  0.03037668  0.39294017  0.73502633    -0.77600
C462        C  0.98112868  0.41487608  0.68534931     1.03300
Fe463      Fe  0.22126572  0.47414850  0.55752651     1.65800
Fe464      Fe  0.20302083  0.38710532  0.55522771     1.73200
Fe465      Fe  0.19649821  0.43974356  0.52526505     1.54400
O466        O  0.17540506  0.48982280  0.52881399    -0.81300
O467        O  0.23162969  0.36420287  0.53981935    -0.79600
O468        O  0.18065845  0.50080214  0.55272261    -0.83800
O469        O  0.24502399  0.49825383  0.54008312    -0.78700
O470        O  0.15251340  0.41721442  0.52786866    -0.80400
O471        O  0.24381407  0.39443613  0.56793102    -0.83200
C472        C  0.25193377  0.48979239  0.52696612     0.97600
C473        C  0.16838971  0.50729566  0.54037753     1.05000
O474        O  0.20694299  0.43354650  0.54595586    -1.12200
O475        O  0.17428542  0.40659939  0.57163642    -0.74600
O476        O  0.19918462  0.45744680  0.57668578    -0.78100
O477        O  0.23973654  0.46296507  0.52065917    -0.78800
C478        C  0.17939028  0.43315812  0.57992399     0.96500
O479        O  0.26248117  0.44872023  0.56303811    -0.76700
O480        O  0.16249880  0.37255311  0.54315878    -0.81900
C481        C  0.22945428  0.36499144  0.52601240     0.99100
C482        C  0.14542734  0.38736902  0.53338180     1.05000
O483        O  0.21537298  0.39003235  0.51918495    -0.77600
C484        C  0.26596966  0.41760634  0.56809529     1.03300
Fe485      Fe  0.96494369  0.02907497  0.80521069     1.65800
Fe486      Fe  0.94430344  0.11584634  0.80333538     1.73200
Fe487      Fe  0.94037040  0.06331871  0.77275951     1.54400
O488        O  0.98445546  0.04142653  0.76838021    -0.81300
O489        O  0.90274746  0.12708025  0.79202560    -0.79600
O490        O  0.99166310  0.00820328  0.78821037    -0.83800
O491        O  0.92681941  0.99911918  0.79902276    -0.78700
O492        O  0.95810302  0.11310479  0.76704435    -0.80400
O493        O  0.91759015  0.09542749  0.82016308    -0.83200
C494        C  0.91618813  0.99222981  0.78634026     0.97600
C495        C  0.99838026  0.01639880  0.77510742     1.05000
O496        O  0.94975814  0.06949555  0.79374062    -1.12200
O497        O  0.98593469  0.11139585  0.81535449    -0.74600
O498        O  0.00465979  0.05648053  0.81202544    -0.78100
O499        O  0.92101720  0.01241821  0.77540974    -0.78800
C500        C  0.00801033  0.08843938  0.81626876     0.96500
O501        O  0.93986405  0.04263315  0.82398062    -0.76700
O502        O  0.97034698  0.14151986  0.78773737    -0.81900
C503        C  0.88683171  0.11306945  0.78165573     0.99100
C504        C  0.96955222  0.13967223  0.77391227     1.05000
O505        O  0.89562301  0.08501682  0.77498939    -0.77600
C506        C  0.92129036  0.06760324  0.82775204     1.03300
Fe507      Fe  0.77561368  0.03592860  0.94597000     1.65800
Fe508      Fe  0.79789979  0.12225228  0.94927382     1.73200
Fe509      Fe  0.80381796  0.06680558  0.97868116     1.54400
O510        O  0.76066059  0.04330054  0.98357615    -0.81300
O511        O  0.84065710  0.13206460  0.95970721    -0.79600
O512        O  0.75011024  0.01344142  0.96306111    -0.83800
O513        O  0.81348306  0.00383787  0.95101915    -0.78700
O514        O  0.78568083  0.11518681  0.98575279    -0.80400
O515        O  0.82269521  0.10304092  0.93171479    -0.83200
C516        C  0.82588713  0.99677474  0.96336160     0.97600
C517        C  0.74579687  0.01918891  0.97662597     1.05000
O518        O  0.79258889  0.07496103  0.95801169    -1.12200
O519        O  0.75520796  0.12004059  0.93805293    -0.74600
O520        O  0.73568257  0.06522857  0.94043028    -0.78100
O521        O  0.82324559  0.01701754  0.97447261    -0.78800
C522        C  0.73254380  0.09783660  0.93707597     0.96500
O523        O  0.79953560  0.05107994  0.92692921    -0.76700
O524        O  0.77379583  0.14662254  0.96585595    -0.81900
C525        C  0.85704536  0.11758743  0.96971168     0.99100
C526        C  0.77421330  0.14255536  0.97959270     1.05000
O527        O  0.84823385  0.08958391  0.97632489    -0.77600
C528        C  0.81813511  0.07639129  0.92348912     1.03300
Fe529      Fe  0.96342243  0.72170757  0.94577331     1.65800
Fe530      Fe  0.94463221  0.63543102  0.94916812     1.73200
Fe531      Fe  0.93858175  0.69014268  0.97832354     1.54400
O532        O  0.98289308  0.71074461  0.98243004    -0.81300
O533        O  0.90565461  0.62157118  0.96237173    -0.79600
O534        O  0.98875204  0.74599190  0.96306515    -0.83800
O535        O  0.92367931  0.74986917  0.95073122    -0.78700
O536        O  0.95535845  0.63986368  0.98461181    -0.80400
O537        O  0.91456153  0.65317703  0.93314615    -0.83200
C538        C  0.91300353  0.75840134  0.96319478     0.97600
C539        C  0.99617701  0.73667369  0.97605373     1.05000
O540        O  0.94868937  0.68253439  0.95773386    -1.12200
O541        O  0.98376556  0.64137706  0.93541298    -0.74600
O542        O  0.00413638  0.69488978  0.94014545    -0.78100
O543        O  0.91990094  0.74129631  0.97479746    -0.78800
C544        C  0.00663400  0.66353959  0.93509801     0.96500
O545        O  0.93957042  0.70334720  0.92698461    -0.76700
O546        O  0.97519155  0.61561677  0.96430968    -0.81900
C547        C  0.88822986  0.63781961  0.97166068     0.99100
C548        C  0.97117929  0.61576362  0.97800324     1.05000
O549        O  0.89386772  0.66954378  0.97562002    -0.77600
C550        C  0.91979096  0.67838085  0.92426612     1.03300
Fe551      Fe  0.77000065  0.72214759  0.80641481     1.65800
Fe552      Fe  0.79057250  0.63587896  0.80465614     1.73200
Fe553      Fe  0.79566524  0.68733125  0.77434514     1.54400
O554        O  0.75116947  0.70762965  0.76992671    -0.81300
O555        O  0.83100024  0.62252489  0.79250914    -0.79600
O556        O  0.74516614  0.74451046  0.78882139    -0.83800
O557        O  0.80950225  0.75042025  0.80112991    -0.78700
O558        O  0.77924445  0.63649686  0.76875175    -0.80400
O559        O  0.81906171  0.65659734  0.82087859    -0.83200
C560        C  0.82069836  0.75740831  0.78860607     0.97600
C561        C  0.73810985  0.73435614  0.77591016     1.05000
O562        O  0.78563059  0.68176896  0.79512424    -1.12200
O563        O  0.75007447  0.64202312  0.81750497    -0.74600
O564        O  0.72945010  0.69509832  0.81226701    -0.78100
O565        O  0.81434958  0.73884468  0.77725420    -0.78800
C566        C  0.72701459  0.66392435  0.81745106     0.96500
O567        O  0.79331584  0.70708234  0.82561540    -0.76700
O568        O  0.76216134  0.61184087  0.78944715    -0.81900
C569        C  0.84783899  0.63695333  0.78256449     0.99100
C570        C  0.76562966  0.61142691  0.77570447     1.05000
O571        O  0.84065220  0.66667457  0.77688204    -0.77600
C572        C  0.81354706  0.68332090  0.82900308     1.03300
Fe573      Fe  0.02907032  0.28662636  0.05689445     1.65800
Fe574      Fe  0.04547182  0.37342698  0.05283272     1.73200
Fe575      Fe  0.05104419  0.31792209  0.02383068     1.54400
O576        O  0.07046219  0.26719408  0.02724524    -0.81300
O577        O  0.01378341  0.39224022  0.03790473    -0.79600
O578        O  0.06860278  0.25804044  0.05131820    -0.83800
O579        O  0.00335671  0.26176730  0.04015509    -0.78700
O580        O  0.09553717  0.33968039  0.02588685    -0.80400
O581        O  0.00702377  0.36720015  0.06695244    -0.83200
C582        C  0.99556667  0.26926742  0.02704266     0.97600
C583        C  0.07726343  0.24892190  0.03854690     1.05000
O584        O  0.04213116  0.32584463  0.04454568    -1.12200
O585        O  0.07668129  0.35705746  0.06866004    -0.74600
O586        O  0.05393146  0.30586872  0.07520100    -0.78100
O587        O  0.00713784  0.29564759  0.02027011    -0.78800
C588        C  0.07311335  0.33158943  0.07757939     0.96500
O589        O  0.98812963  0.31276063  0.06290871    -0.76700
O590        O  0.08375241  0.38743433  0.03931167    -0.81900
C591        C  0.01661211  0.39129487  0.02415541     0.99100
C592        C  0.10129641  0.37122553  0.03006144     1.05000
O593        O  0.03270694  0.36744858  0.01753621    -0.77600
C594        C  0.98475772  0.34434901  0.06756864     1.03300
Fe595      Fe  0.21958710  0.28434844  0.19522775     1.65800
Fe596      Fe  0.20336192  0.37161414  0.19785932     1.73200
Fe597      Fe  0.19462222  0.31814767  0.22739042     1.54400
O598        O  0.17416133  0.26743567  0.22370671    -0.81300
O599        O  0.23259896  0.39262825  0.21347363    -0.79600
O600        O  0.17837120  0.25853738  0.19966442    -0.83800
O601        O  0.24189143  0.25914010  0.21276369    -0.78700
O602        O  0.15078251  0.34056147  0.22425018    -0.80400
O603        O  0.24415165  0.36350021  0.18515462    -0.83200
C604        C  0.24867586  0.26723806  0.22593355     0.97600
C605        C  0.16754715  0.24995852  0.21207195     1.05000
O606        O  0.20582636  0.32479490  0.20684918    -1.12200
O607        O  0.17438936  0.35368335  0.18114974    -0.74600
O608        O  0.19841421  0.30231300  0.17607987    -0.78100
O609        O  0.23772803  0.29490967  0.23211065    -0.78800
C610        C  0.17919318  0.32712079  0.17281314     0.96500
O611        O  0.26160427  0.30883470  0.19016084    -0.76700
O612        O  0.16307497  0.38683765  0.21015237    -0.81900
C613        C  0.22853345  0.39268266  0.22717769     0.99100
C614        C  0.14503625  0.37149810  0.21945790     1.05000
O615        O  0.21305131  0.36820626  0.23374993    -0.77600
C616        C  0.26590107  0.33985555  0.18512548     1.03300
Fe617      Fe  0.26899463  0.72722283  0.30856909     1.65800
Fe618      Fe  0.28795885  0.64109061  0.30510630     1.73200
Fe619      Fe  0.29566613  0.69548296  0.27620225     1.54400
O620        O  0.25121216  0.71472152  0.27191125    -0.81300
O621        O  0.32870344  0.62891454  0.29305887    -0.79600
O622        O  0.24518379  0.75120015  0.29099234    -0.83800
O623        O  0.30896237  0.75545643  0.30421832    -0.78700
O624        O  0.28024249  0.64444556  0.26942546    -0.80400
O625        O  0.31629829  0.65915014  0.32161208    -0.83200
C626        C  0.31882335  0.76523138  0.29179156     0.97600
C627        C  0.23813212  0.74118510  0.27803796     1.05000
O628        O  0.28447087  0.68800714  0.29666117    -1.12200
O629        O  0.24736771  0.64659384  0.31786985    -0.74600
O630        O  0.22781738  0.70049344  0.31336461    -0.78100
O631        O  0.31298948  0.74757212  0.28011053    -0.78800
C632        C  0.22460721  0.66884636  0.31786522     0.96500
O633        O  0.29140550  0.70933378  0.32774680    -0.76700
O634        O  0.25929471  0.62008571  0.28933324    -0.81900
C635        C  0.34700319  0.64531890  0.28424307     0.99100
C636        C  0.26445665  0.61984196  0.27572729     1.05000
O637        O  0.34057991  0.67593871  0.27927050    -0.77600
C638        C  0.31106736  0.68439976  0.33048047     1.03300
Fe639      Fe  0.47104892  0.72275421  0.44591147     1.65800
Fe640      Fe  0.45243856  0.63531387  0.44627644     1.73200
Fe641      Fe  0.44377504  0.68506473  0.47701261     1.54400
O642        O  0.48751654  0.70543809  0.48251621    -0.81300
O643        O  0.41123019  0.62012963  0.45756911    -0.79600
O644        O  0.49558604  0.74302422  0.46407814    -0.83800
O645        O  0.43130824  0.75045625  0.45129173    -0.78700
O646        O  0.46092589  0.63427448  0.48226103    -0.80400
O647        O  0.42478150  0.65648812  0.42996735    -0.83200
C648        C  0.41863051  0.75604696  0.46361585     0.97600
C649        C  0.50178539  0.73171302  0.47689723     1.05000
O650        O  0.45571891  0.68100790  0.45638949    -1.12200
O651        O  0.49380202  0.64314970  0.43414934    -0.74600
O652        O  0.51192951  0.69736572  0.43958168    -0.78100
O653        O  0.42424865  0.73657898  0.47473498    -0.78800
C654        C  0.51570810  0.66655228  0.43418893     0.96500
O655        O  0.44791161  0.70921062  0.42650077    -0.76700
O656        O  0.48011119  0.61087969  0.46165036    -0.81900
C657        C  0.39326762  0.63429022  0.46719661     0.99100
C658        C  0.47613356  0.61013373  0.47536991     1.05000
O659        O  0.39952909  0.66412280  0.47307801    -0.77600
C660        C  0.42875218  0.68471928  0.42261736     1.03300
Fe661      Fe  0.71727117  0.28029805  0.69349746     1.65800
Fe662      Fe  0.70684397  0.36886040  0.69664227     1.73200
Fe663      Fe  0.69510776  0.31581979  0.72598212     1.54400
O664        O  0.67168114  0.26732458  0.72250514    -0.81300
O665        O  0.73759509  0.38708415  0.71223034    -0.79600
O666        O  0.67534937  0.25598374  0.69861664    -0.83800
O667        O  0.74007053  0.25437672  0.71064866    -0.78700
O668        O  0.65269596  0.34197954  0.72326355    -0.80400
O669        O  0.74637920  0.35834461  0.68369826    -0.83200
C670        C  0.74749752  0.26201604  0.72379124     0.97600
C671        C  0.66440318  0.24910099  0.71120912     1.05000
O672        O  0.70625617  0.32162529  0.70535982    -1.12200
O673        O  0.67672669  0.35397798  0.68014032    -0.74600
O674        O  0.69526427  0.29987218  0.67482100    -0.78100
O675        O  0.73680753  0.28931285  0.73034701    -0.78800
C676        C  0.67859906  0.32708686  0.67179717     0.96500
O677        O  0.76030579  0.30203977  0.68765512    -0.76700
O678        O  0.66771475  0.38660378  0.70881560    -0.81900
C679        C  0.73348013  0.38697599  0.72592194     0.99100
C680        C  0.64862927  0.37289712  0.71805249     1.05000
O681        O  0.71657144  0.36365066  0.73235151    -0.77600
C682        C  0.76645290  0.33308902  0.68307684     1.03300
Fe683      Fe  0.52320528  0.27623698  0.55639246     1.65800
Fe684      Fe  0.54109307  0.36342923  0.55499152     1.73200
Fe685      Fe  0.54790546  0.31236013  0.52482168     1.54400
O686        O  0.56539808  0.26018381  0.52708388    -0.81300
O687        O  0.51181333  0.38629946  0.53995921    -0.79600
O688        O  0.56308575  0.24885941  0.55092571    -0.83800
O689        O  0.49860562  0.25461153  0.53857707    -0.78700
O690        O  0.59273167  0.33139624  0.52845276    -0.80400
O691        O  0.50059989  0.35559753  0.56792654    -0.83200
C692        C  0.49074450  0.26587416  0.52594331     0.97600
C693        C  0.57171462  0.24068192  0.53809385     1.05000
O694        O  0.53744862  0.31736583  0.54544310    -1.12200
O695        O  0.57028084  0.34337465  0.57089167    -0.74600
O696        O  0.54613023  0.29183343  0.57556992    -0.78100
O697        O  0.50333045  0.29314198  0.52021991    -0.78800
C698        C  0.56567521  0.31640645  0.57891607     0.96500
O699        O  0.48240953  0.30143378  0.56241968    -0.76700
O700        O  0.58129471  0.37809503  0.54259310    -0.81900
C701        C  0.51692167  0.38794345  0.52635991     0.99100
C702        C  0.59901564  0.36228283  0.53325320     1.05000
O703        O  0.53234519  0.36390315  0.51950358    -0.77600
C704        C  0.47860849  0.33220234  0.56779830     1.03300
C705        C  0.63880365  0.34287908  0.63489155     0.16300
C706        C  0.62744129  0.35700575  0.62176636    -0.32700
C707        C  0.61137312  0.33393903  0.61224742     0.20700
C708        C  0.60648705  0.29842871  0.61565806     0.02900
C709        C  0.61838609  0.28410258  0.62869084    -0.22400
C710        C  0.63479651  0.30712891  0.63815767     0.12100
S711        S  0.65818862  0.36681691  0.64801011    -0.06100
C712        C  0.66162533  0.32809573  0.65783987    -0.09600
C713        C  0.64828602  0.29834669  0.65129224    -0.26200
S714        S  0.58497597  0.27539850  0.60290303    -0.03400
C715        C  0.58310497  0.31395318  0.59279690    -0.16800
C716        C  0.59831311  0.34289938  0.59908510    -0.14800
H717        H  0.63078437  0.38482592  0.61913190     0.20600
H718        H  0.61484687  0.25634450  0.63137311     0.16600
H719        H  0.64822993  0.27190510  0.65596084     0.19100
H720        H  0.59916152  0.36933209  0.59442108     0.12500
C721        C  0.48980125  0.47949714  0.51322646     0.16300
C722        C  0.47798489  0.51425674  0.51223943    -0.32700
C723        C  0.48670833  0.53433430  0.49998827     0.20700
C724        C  0.50641299  0.52042117  0.48923246     0.02900
C725        C  0.51842642  0.48574603  0.49027744    -0.22400
C726        C  0.50951241  0.46557851  0.50247515     0.12100
S727        S  0.48261209  0.45132018  0.52739510    -0.06100
C728        C  0.50649346  0.42036458  0.51879171    -0.09600
C729        C  0.51901790  0.43150347  0.50555109    -0.26200
S730        S  0.51250259  0.54806190  0.47476737    -0.03400
C731        C  0.48797813  0.57865640  0.48320233    -0.16800
C732        C  0.47633682  0.56795549  0.49667826    -0.14800
H733        H  0.46248435  0.52507390  0.52060037     0.20600
H734        H  0.53371469  0.47481888  0.48185884     0.16600
H735        H  0.53541331  0.41621067  0.49890716     0.19100
H736        H  0.45964364  0.58300744  0.50325824     0.12500
C737        C  0.35566875  0.66536660  0.36605915     0.16300
C738        C  0.37136168  0.64916638  0.37775199    -0.32700
C739        C  0.38413339  0.67124893  0.38860344     0.20700
C740        C  0.38179627  0.70799341  0.38781807     0.02900
C741        C  0.36547158  0.72427949  0.37620017    -0.22400
C742        C  0.35230281  0.70204394  0.36536709     0.12100
S743        S  0.33979783  0.64283510  0.35164914    -0.06100
C744        C  0.32779005  0.68304481  0.34460129    -0.09600
C745        C  0.33579686  0.71242710  0.35308854    -0.26200
S746        S  0.40040030  0.72988545  0.40187937    -0.03400
C747        C  0.41063253  0.68897478  0.40896225    -0.16800
C748        C  0.40027218  0.66021015  0.40075777    -0.14800
H749        H  0.37374884  0.62049589  0.37830431     0.20600
H750        H  0.36335572  0.75295374  0.37557482     0.16600
H751        H  0.33053325  0.73975351  0.35026008     0.19100
H752        H  0.40474644  0.63260577  0.40344335     0.12500
C753        C  0.23604981  0.52890384  0.26225359     0.16300
C754        C  0.22403618  0.49411785  0.26158819    -0.32700
C755        C  0.23545602  0.47172981  0.25048155     0.20700
C756        C  0.25771842  0.48361652  0.24042738     0.02900
C757        C  0.26977090  0.51843809  0.24109844    -0.22400
C758        C  0.25839845  0.54082032  0.25224273     0.12100
S759        S  0.22664291  0.55910726  0.27547220    -0.06100
C760        C  0.25344981  0.58815179  0.26763185    -0.09600
C761        C  0.26824530  0.57504499  0.25516397    -0.26200
S762        S  0.26688366  0.45327485  0.22718897    -0.03400
C763        C  0.24020959  0.42424691  0.23516967    -0.16800
C764        C  0.22562246  0.43750079  0.24765022    -0.14800
H765        H  0.20661130  0.48487332  0.26943011     0.20600
H766        H  0.28717654  0.52769295  0.23325015     0.16600
H767        H  0.28681543  0.58875149  0.24920810     0.19100
H768        H  0.20706801  0.42391117  0.25366226     0.12500
C769        C  0.11684671  0.35036352  0.11367117     0.16300
C770        C  0.13068143  0.36615673  0.12606091    -0.32700
C771        C  0.14062351  0.34368393  0.13738452     0.20700
C772        C  0.13757133  0.30702583  0.13627975     0.02900
C773        C  0.12327528  0.29125006  0.12397450    -0.22400
C774        C  0.11272480  0.31380530  0.11277050     0.12100
S775        S  0.10320299  0.37312364  0.09883546    -0.06100
C776        C  0.09088510  0.33313412  0.09147529    -0.09600
C777        C  0.09750146  0.30374109  0.10009577    -0.26200
S778        S  0.15265465  0.28431222  0.15086537    -0.03400
C779        C  0.16235151  0.32466464  0.15871707    -0.16800
C780        C  0.15442862  0.35401391  0.15034097    -0.14800
H781        H  0.13349008  0.39473921  0.12685387     0.20600
H782        H  0.12046630  0.26266950  0.12318119     0.16600
H783        H  0.09140745  0.27657233  0.09726750     0.19100
H784        H  0.15928567  0.38135003  0.15339858     0.12500
C785        C  0.76319807  0.47616310  0.74011265     0.16300
C786        C  0.77390031  0.51141896  0.74093319    -0.32700
C787        C  0.76238061  0.53250930  0.75243575     0.20700
C788        C  0.74154519  0.51891538  0.76276989     0.02900
C789        C  0.73106857  0.48362306  0.76201582    -0.22400
C790        C  0.74231134  0.46265655  0.75044418     0.12100
S791        S  0.77168283  0.44751670  0.72617887    -0.06100
C792        C  0.74627597  0.41727250  0.73420365    -0.09600
C793        C  0.73293988  0.42863258  0.74725241    -0.26200
S794        S  0.73150964  0.54806487  0.77627905    -0.03400
C795        C  0.75575391  0.57898590  0.76798501    -0.16800
C796        C  0.77036478  0.56720002  0.75527510    -0.14800
H797        H  0.79003145  0.52210866  0.73282324     0.20600
H798        H  0.71460236  0.47307937  0.77001464     0.16600
H799        H  0.71514055  0.41407991  0.75336658     0.19100
H800        H  0.78752308  0.58235099  0.74902164     0.12500
C801        C  0.98091542  0.47781524  0.01064574     0.16300
C802        C  0.96614485  0.51115103  0.00994728    -0.32700
C803        C  0.97827027  0.53573445  0.99990749     0.20700
C804        C  0.00370103  0.52729518  0.99086878     0.02900
C805        C  0.01823713  0.49390577  0.99147131    -0.22400
C806        C  0.00624101  0.46941644  0.00153870     0.12100
S807        S  0.97200331  0.44577549  0.02310590    -0.06100
C808        C  0.00290121  0.42099378  0.01602290    -0.09600
C809        C  0.01858087  0.43651397  0.00438510    -0.26200
S810        S  0.01382822  0.55975409  0.97884688    -0.03400
C811        C  0.98330784  0.58496992  0.98595346    -0.16800
C812        C  0.96665219  0.56912640  0.99725699    -0.14800
H813        H  0.94639056  0.51780138  0.01705575     0.20600
H814        H  0.03816195  0.48736998  0.98444694     0.16600
H815        H  0.03967998  0.42576933  0.99919800     0.19100
H816        H  0.94570337  0.58025859  0.00243591     0.12500
C817        C  0.88008262  0.66034171  0.88717854     0.16300
C818        C  0.86764592  0.64480562  0.87444116    -0.32700
C819        C  0.85530897  0.66751804  0.86372272     0.20700
C820        C  0.85494399  0.70412149  0.86565815     0.02900
C821        C  0.86807224  0.71975504  0.87828905    -0.22400
C822        C  0.88082735  0.69700040  0.88895713     0.12100
S823        S  0.89523602  0.63712171  0.90156827    -0.06100
C824        C  0.90351185  0.67713497  0.90999438    -0.09600
C825        C  0.89474536  0.70687642  0.90199105    -0.26200
S826        S  0.83700533  0.72677496  0.85170152    -0.03400
C827        C  0.83065212  0.68653207  0.84304451    -0.16800
C828        C  0.84184610  0.65732159  0.85069449    -0.14800
H829        H  0.86735969  0.61619246  0.87300097     0.20600
H830        H  0.86809553  0.74834485  0.87978827     0.16600
H831        H  0.89806333  0.73411703  0.90558226     0.19100
H832        H  0.83945228  0.62996044  0.84709304     0.12500
C833        C  0.86207429  0.90641164  0.97334470     0.16300
C834        C  0.87425584  0.87585931  0.98018105    -0.32700
C835        C  0.87761973  0.84501987  0.97155818     0.20700
C836        C  0.86867645  0.84472084  0.95693469     0.02900
C837        C  0.85638310  0.87493193  0.95021076    -0.22400
C838        C  0.85367406  0.90568942  0.95867515     0.12100
S839        S  0.85580858  0.94669554  0.98162598    -0.06100
C840        C  0.84197151  0.96234280  0.96504669    -0.09600
C841        C  0.84249944  0.93754867  0.95384867    -0.26200
S842        S  0.87661546  0.80639872  0.94785677    -0.03400
C843        C  0.89316814  0.79042272  0.96374318    -0.16800
C844        C  0.89145062  0.81342973  0.97563816    -0.14800
H845        H  0.88133357  0.87630235  0.99157646     0.20600
H846        H  0.84992589  0.87471540  0.93873235     0.16600
H847        H  0.83392371  0.94214032  0.94283408     0.19100
H848        H  0.90191193  0.80843164  0.98626618     0.12500
C849        C  0.91999402  0.18393848  0.98244431     0.16300
C850        C  0.93638774  0.21573032  0.98537039    -0.32700
C851        C  0.94912816  0.22032029  0.99946535     0.20700
C852        C  0.94612893  0.19421073  0.01005352     0.02900
C853        C  0.93049883  0.16217086  0.00700730    -0.22400
C854        C  0.91739347  0.15777200  0.99302934     0.12100
S855        S  0.89872988  0.17532336  0.96689118    -0.06100
C856        C  0.88567962  0.13641983  0.97490276    -0.09600
C857        C  0.89841247  0.13014197  0.98864287    -0.26200
S858        S  0.96263054  0.20485452  0.02653810    -0.03400
C859        C  0.97413637  0.24488311  0.01912790    -0.16800
C860        C  0.96523186  0.24955499  0.00461392    -0.14800
H861        H  0.93812722  0.23647238  0.97721209     0.20600
H862        H  0.92777574  0.14197702  0.01533753     0.16600
H863        H  0.89155944  0.10833424  0.99568946     0.19100
H864        H  0.97092954  0.27268287  0.99807957     0.12500
C865        C  0.86709416  0.84301159  0.79381773     0.16300
C866        C  0.88064570  0.87309185  0.80017117    -0.32700
C867        C  0.88491158  0.90277062  0.79131884     0.20700
C868        C  0.87683632  0.90269152  0.77661793     0.02900
C869        C  0.86321154  0.87220675  0.77014773    -0.22400
C870        C  0.85830536  0.84238248  0.77917729     0.12100
S871        S  0.85774369  0.80599690  0.80338768    -0.06100
C872        C  0.84086652  0.78916163  0.78768884    -0.09600
C873        C  0.84335824  0.81099125  0.77549523    -0.26200
S874        S  0.88529403  0.94197916  0.76792250    -0.03400
C875        C  0.89938901  0.95817134  0.78442676    -0.16800
C876        C  0.89738544  0.93427568  0.79584473    -0.14800
H877        H  0.88698276  0.87360585  0.81165562     0.20600
H878        H  0.85632443  0.87193768  0.75873513     0.16600
H879        H  0.83295821  0.80529577  0.76490072     0.19100
H880        H  0.90566777  0.93923806  0.80689235     0.12500
C881        C  0.87821409  0.04772504  0.86393790     0.16300
C882        C  0.86327866  0.03260448  0.87620230    -0.32700
C883        C  0.85411834  0.05562100  0.88761446     0.20700
C884        C  0.86006823  0.09187633  0.88686374     0.02900
C885        C  0.87439681  0.10696662  0.87455850    -0.22400
C886        C  0.88304859  0.08416352  0.86311636     0.12100
S887        S  0.89237896  0.02463406  0.84913468    -0.06100
C888        C  0.90409218  0.06469368  0.84171102    -0.09600
C889        C  0.89740587  0.09407281  0.85033474    -0.26200
S890        S  0.84836523  0.11541049  0.90183819    -0.03400
C891        C  0.83438943  0.07630853  0.90920278    -0.16800
C892        C  0.83899595  0.04648126  0.90042707    -0.14800
H893        H  0.85913553  0.00420820  0.87684829     0.20600
H894        H  0.87872550  0.13534492  0.87395179     0.16600
H895        H  0.90361547  0.12121785  0.84757876     0.19100
H896        H  0.83180386  0.01971506  0.90327731     0.12500
C897        C  0.82473993  0.17949263  0.76834157     0.16300
C898        C  0.80841164  0.21108016  0.76523076    -0.32700
C899        C  0.79430519  0.21417654  0.75137788     0.20700
C900        C  0.79594775  0.18685562  0.74116912     0.02900
C901        C  0.81168120  0.15502308  0.74439314    -0.22400
C902        C  0.82616228  0.15211712  0.75815337     0.12100
S903        S  0.84692676  0.17235730  0.78370128    -0.06100
C904        C  0.85875670  0.13232344  0.77619443    -0.09600
C905        C  0.84514860  0.12473761  0.76270514    -0.26200
S906        S  0.77800021  0.19604862  0.72487626    -0.03400
C907        C  0.76796940  0.23715389  0.73188325    -0.16800
C908        C  0.77820651  0.24313076  0.74612032    -0.14800
H909        H  0.80766064  0.23274699  0.77306687     0.20600
H910        H  0.81339719  0.13386225  0.73635772     0.16600
H911        H  0.85105180  0.10188683  0.75598407     0.19100
H912        H  0.77378752  0.26719177  0.75234708     0.12500
C913        C  0.30315133  0.56185709  0.50876004     0.16300
C914        C  0.31939131  0.59314644  0.50516241    -0.32700
C915        C  0.33371574  0.59499501  0.49134379     0.20700
C916        C  0.33203084  0.56699423  0.48146692     0.02900
C917        C  0.31507847  0.53589780  0.48493845    -0.22400
C918        C  0.30080249  0.53398802  0.49883780     0.12100
S919        S  0.28500249  0.55426281  0.52515455    -0.06100
C920        C  0.27354116  0.51315959  0.51860018    -0.09600
C921        C  0.28369763  0.50595424  0.50441125    -0.26200
S922        S  0.35429836  0.57319216  0.46597909    -0.03400
C923        C  0.36598930  0.61390372  0.47296299    -0.16800
C924        C  0.35252413  0.62212972  0.48641495    -0.14800
H925        H  0.32142056  0.61483399  0.51294366     0.20600
H926        H  0.31380626  0.51381678  0.47731670     0.16600
H927        H  0.27844800  0.48173888  0.49842117     0.19100
H928        H  0.35825945  0.64553994  0.49284689     0.12500
C929        C  0.35317921  0.40413632  0.57815255     0.16300
C930        C  0.38628303  0.40798944  0.57883772    -0.32700
C931        C  0.40470933  0.37703722  0.57790764     0.20700
C932        C  0.39075115  0.34364672  0.57695188     0.02900
C933        C  0.35764302  0.33970003  0.57687625    -0.22400
C934        C  0.33925926  0.37072627  0.57720897     0.12100
S935        S  0.32721129  0.43857333  0.57620280    -0.06100
C936        C  0.29741594  0.40762729  0.57373072    -0.09600
C937        C  0.30712476  0.37256134  0.57494371    -0.26200
S938        S  0.41684108  0.30989441  0.57380947    -0.03400
C939        C  0.44685547  0.34115643  0.57339671    -0.16800
C940        C  0.43703960  0.37571870  0.57610705    -0.14800
H941        H  0.39721545  0.43407476  0.57896770     0.20600
H942        H  0.34675515  0.31378386  0.57550611     0.16600
H943        H  0.29203053  0.34966753  0.57297802     0.19100
H944        H  0.45228107  0.39891113  0.57554490     0.12500
C945        C  0.98620111  0.21805828  0.74849780     0.16300
C946        C  0.98703317  0.24210538  0.73686520    -0.32700
C947        C  0.99395370  0.27772977  0.74015380     0.20700
C948        C  0.00009051  0.28905984  0.75433027     0.02900
C949        C  0.99920143  0.26500346  0.76597367    -0.22400
C950        C  0.99213907  0.22937912  0.76269745     0.12100
S951        S  0.97663004  0.17403387  0.74693682    -0.06100
C952        C  0.98030090  0.17094445  0.76566124    -0.09600
C953        C  0.98907078  0.20241083  0.77256164    -0.26200
S954        S  0.00986067  0.33310659  0.75582740    -0.03400
C955        C  0.00563384  0.33619211  0.73713301    -0.16800
C956        C  0.99670229  0.30468545  0.73029775    -0.14800
H957        H  0.98237295  0.23347290  0.72573922     0.20600
H958        H  0.00386149  0.27363722  0.77709637     0.16600
H959        H  0.99147795  0.20584889  0.78428868     0.19100
H960        H  0.99408916  0.30115184  0.71858113     0.12500
C961        C  0.13814087  0.45278008  0.61662962     0.16300
C962        C  0.12524949  0.46806330  0.62935234    -0.32700
C963        C  0.11069624  0.44521478  0.63947157     0.20700
C964        C  0.10952895  0.40875610  0.63711837     0.02900
C965        C  0.12185578  0.39360772  0.62429587    -0.22400
C966        C  0.13595783  0.41646022  0.61409931     0.12100
S967        S  0.15765518  0.47558572  0.60320106    -0.06100
C968        C  0.16223253  0.43584345  0.59394111    -0.09600
C969        C  0.14937791  0.40665147  0.60102893    -0.26200
S970        S  0.09217263  0.38531309  0.65092162    -0.03400
C971        C  0.08561709  0.42505662  0.65983819    -0.16800
C972        C  0.09654565  0.45482780  0.65244445    -0.14800
H973        H  0.12663260  0.49645293  0.63130624     0.20600
H974        H  0.12064132  0.36519223  0.62238167     0.16600
H975        H  0.15042184  0.37956276  0.59698115     0.19100
H976        H  0.09453519  0.48190678  0.65642312     0.12500
C977        C  0.90937864  0.56992196  0.76827471     0.16300
C978        C  0.92692369  0.53903479  0.76520754    -0.32700
C979        C  0.94213949  0.53670229  0.75155960     0.20700
C980        C  0.94010252  0.56395529  0.74142688     0.02900
C981        C  0.92289474  0.59504041  0.74456967    -0.22400
C982        C  0.90761541  0.59733630  0.75820661     0.12100
S983        S  0.88697838  0.57656390  0.78365227    -0.06100
C984        C  0.87495560  0.61674817  0.77646830    -0.09600
C985        C  0.88826398  0.62445046  0.76292319    -0.26200
S986        S  0.96005125  0.55581605  0.72545790    -0.03400
C987        C  0.97157678  0.51533055  0.73252736    -0.16800
C988        C  0.96017623  0.50878078  0.74653276    -0.14800
H989        H  0.92817843  0.51747591  0.77301172     0.20600
H990        H  0.92109987  0.61629011  0.73664380     0.16600
H991        H  0.88240810  0.64755513  0.75640991     0.19100
H992        H  0.96522575  0.48506088  0.75280752     0.12500
C993        C  0.85505534  0.34261360  0.67442781     0.16300
C994        C  0.88819983  0.33818980  0.67466466    -0.32700
C995        C  0.90705715  0.36900404  0.67541477     0.20700
C996        C  0.89351944  0.40264301  0.67532441     0.02900
C997        C  0.86055107  0.40704409  0.67446679    -0.22400
C998        C  0.84171472  0.37633970  0.67430689     0.12100
S999        S  0.82802038  0.30902506  0.67650302    -0.06100
C1000       C  0.79866358  0.34093859  0.67765964    -0.09600
C1001       C  0.80938971  0.37549635  0.67584764    -0.26200
S1002       S  0.91969151  0.43652215  0.67824700    -0.03400
C1003       C  0.94931870  0.40517542  0.67988073    -0.16800
C1004       C  0.93926758  0.37031069  0.67783502    -0.14800
H1005       H  0.89871020  0.31195622  0.67532772     0.20600
H1006       H  0.84994811  0.43326354  0.67499831     0.16600
H1007       H  0.79471507  0.39902118  0.67697235     0.19100
H1008       H  0.95424711  0.34709653  0.67910074     0.12500
C1009       C  0.35598127  0.85671582  0.29761512     0.16300
C1010       C  0.36603558  0.88874648  0.30377329    -0.32700
C1011       C  0.37620985  0.91535119  0.29428629     0.20700
C1012       C  0.37648808  0.91063590  0.27924075     0.02900
C1013       C  0.36599731  0.87836118  0.27298876    -0.22400
C1014       C  0.35572050  0.85142195  0.28258341     0.12100
S1015       S  0.34264562  0.82193218  0.30759354    -0.06100
C1016       C  0.33591149  0.79943401  0.29143944    -0.09600
C1017       C  0.34412167  0.81822998  0.27891030    -0.26200
S1018       S  0.39166938  0.94635242  0.26989722    -0.03400
C1019       C  0.39774682  0.96718748  0.28655477    -0.16800
C1020       C  0.38795878  0.94753770  0.29849447    -0.14800
H1021       H  0.36613945  0.89268502  0.31551853     0.20600
H1022       H  0.36610282  0.87433900  0.26125620     0.16600
H1023       H  0.34083244  0.80868019  0.26782252     0.19100
H1024       H  0.39053401  0.95578155  0.30980590     0.12500
C1025       C  0.29434254  0.19170722  0.24471946     0.16300
C1026       C  0.30928720  0.15970300  0.24844322    -0.32700
C1027       C  0.32445860  0.15792755  0.26208759     0.20700
C1028       C  0.32421597  0.18646261  0.27174562     0.02900
C1029       C  0.30838177  0.21810814  0.26820542    -0.22400
C1030       C  0.29382652  0.22017419  0.25440959     0.12100
S1031       S  0.27659095  0.19999155  0.22828767    -0.06100
C1032       C  0.26826697  0.24233448  0.23450319    -0.09600
C1033       C  0.27872356  0.24926540  0.24863906    -0.26200
S1034       S  0.34763344  0.18074149  0.28683481    -0.03400
C1035       C  0.35847252  0.13979763  0.27988645    -0.16800
C1036       C  0.34348877  0.13079318  0.26685283    -0.14800
H1037       H  0.31023170  0.13767455  0.24077993     0.20600
H1038       H  0.30866029  0.24069858  0.27559427     0.16600
H1039       H  0.27533698  0.27419328  0.25440666     0.19100
H1040       H  0.34860841  0.10713135  0.26047597     0.12500
C1041       C  0.36917214  0.83973190  0.45808321     0.16300
C1042       C  0.35436970  0.86898620  0.45165139    -0.32700
C1043       C  0.34935477  0.89902203  0.46037954     0.20700
C1044       C  0.35803617  0.89995734  0.47500321     0.02900
C1045       C  0.37282492  0.87034984  0.48153111    -0.22400
C1046       C  0.37837923  0.84021812  0.47266533     0.12100
S1047       S  0.37960454  0.80248357  0.44872574    -0.06100
C1048       C  0.39731856  0.78704984  0.46446211    -0.09600
C1049       C  0.39439721  0.80958847  0.47648870    -0.26200
S1050       S  0.34911752  0.93943884  0.48356500    -0.03400
C1051       C  0.33397063  0.95457595  0.46714734    -0.16800
C1052       C  0.33586443  0.93006309  0.45582304    -0.14800
H1053       H  0.34770027  0.86864559  0.44021274     0.20600
H1054       H  0.38014440  0.87100463  0.49287796     0.16600
H1055       H  0.40522152  0.80497959  0.48706042     0.19100
H1056       H  0.32716245  0.93441486  0.44482083     0.12500
C1057       C  0.25948143  0.27476909  0.51263649     0.16300
C1058       C  0.27090121  0.23974902  0.51206065    -0.32700
C1059       C  0.26062111  0.21811680  0.50045454     0.20700
C1060       C  0.24016271  0.23099599  0.48980541     0.02900
C1061       C  0.22885985  0.26607699  0.49034055    -0.22400
C1062       C  0.23896142  0.28763433  0.50200852     0.12100
S1063       S  0.26701062  0.30400578  0.52649646    -0.06100
C1064       C  0.24186649  0.33384470  0.51804651    -0.09600
C1065       C  0.22909883  0.32176172  0.50494009    -0.26200
S1066       S  0.23173959  0.20125455  0.47623151    -0.03400
C1067       C  0.25613968  0.17104230  0.48492686    -0.16800
C1068       C  0.26962145  0.18355602  0.49780811    -0.14800
H1069       H  0.28680244  0.22966838  0.52040711     0.20600
H1070       H  0.21273850  0.27606050  0.48206269     0.16600
H1071       H  0.21162395  0.33602935  0.49851938     0.19100
H1072       H  0.28664162  0.16899276  0.50437101     0.12500
C1073       C  0.38431056  0.08950517  0.36762614     0.16300
C1074       C  0.37250099  0.10444685  0.38055857    -0.32700
C1075       C  0.35822692  0.08155778  0.39064033     0.20700
C1076       C  0.35526940  0.04539738  0.38789315     0.02900
C1077       C  0.36762730  0.03028072  0.37500884    -0.22400
C1078       C  0.38248158  0.05317748  0.36498880     0.12100
S1079       S  0.40156843  0.11327321  0.35398674    -0.06100
C1080       C  0.40723381  0.07390970  0.34467122    -0.09600
C1081       C  0.39614105  0.04388760  0.35183116    -0.26200
S1082       S  0.33555561  0.02264632  0.40128795    -0.03400
C1083       C  0.33215521  0.06217685  0.41079867    -0.16800
C1084       C  0.34537262  0.09126095  0.40380961    -0.14800
H1085       H  0.37423823  0.13276610  0.38264108     0.20600
H1086       H  0.36562555  0.00202117  0.37286785     0.16600
H1087       H  0.39740289  0.01704927  0.34752958     0.19100
H1088       H  0.34494020  0.11825588  0.40799550     0.12500
C1089       C  0.41081269  0.15221476  0.49662337     0.16300
C1090       C  0.42967694  0.16148176  0.50868631    -0.32700
C1091       C  0.44089640  0.19653190  0.50949444     0.20700
C1092       C  0.43397093  0.22119381  0.49870440     0.02900
C1093       C  0.41493819  0.21197078  0.48667627    -0.22400
C1094       C  0.40349410  0.17696177  0.48592426     0.12100
S1095       S  0.39342000  0.11169635  0.49411810    -0.06100
C1096       C  0.37546934  0.12837123  0.47861950    -0.09600
C1097       C  0.38333875  0.16338595  0.47550844    -0.26200
S1098       S  0.45104192  0.26189450  0.50139138    -0.03400
C1099       C  0.46752831  0.24553510  0.51727015    -0.16800
C1100       C  0.45985310  0.21045732  0.52027008    -0.14800
H1101       H  0.43512703  0.14230904  0.51713575     0.20600
H1102       H  0.40918914  0.23125823  0.47831551     0.16600
H1103       H  0.37332059  0.17875953  0.46663256     0.19100
H1104       H  0.46870188  0.19552420  0.52953029     0.12500
C1105       C  0.49621299  0.24140248  0.26660838     0.16300
C1106       C  0.50827196  0.27615226  0.26631922    -0.32700
C1107       C  0.49783795  0.29851473  0.25507062     0.20700
C1108       C  0.47621887  0.28677857  0.24463235     0.02900
C1109       C  0.46401358  0.25210831  0.24497916    -0.22400
C1110       C  0.47469086  0.22963975  0.25613436     0.12100
S1111       S  0.50517135  0.21069172  0.27960498    -0.06100
C1112       C  0.47964045  0.18158620  0.27085874    -0.09600
C1113       C  0.46530831  0.19515188  0.25842468    -0.26200
S1114       S  0.46868575  0.31665577  0.23113355    -0.03400
C1115       C  0.49540655  0.34512660  0.23944875    -0.16800
C1116       C  0.50858713  0.33227528  0.25228302    -0.14800
H1117       H  0.52532370  0.28523106  0.27442108     0.20600
H1118       H  0.44734789  0.24284673  0.23674429     0.16600
H1119       H  0.44758282  0.18130908  0.25192986     0.19100
H1120       H  0.52715646  0.34552690  0.25848273     0.12500
C1121       C  0.44003024  0.57385182  0.24374464     0.16300
C1122       C  0.42280854  0.60496134  0.24673935    -0.32700
C1123       C  0.40806665  0.60773825  0.26047345     0.20700
C1124       C  0.41058266  0.58093176  0.27079632     0.02900
C1125       C  0.42830337  0.55024023  0.26791008    -0.22400
C1126       C  0.44267398  0.54725691  0.25414632     0.12100
S1127       S  0.45883929  0.56455884  0.22760473    -0.06100
C1128       C  0.47036227  0.52442684  0.23500852    -0.09600
C1129       C  0.46002359  0.51892347  0.24921299    -0.26200
S1130       S  0.38818535  0.58737960  0.28612214    -0.03400
C1131       C  0.37499105  0.62652083  0.27853225    -0.16800
C1132       C  0.38808047  0.63433697  0.26497851    -0.14800
H1133       H  0.42028805  0.62563714  0.23859089     0.20600
H1134       H  0.42997083  0.52905816  0.27587901     0.16600
H1135       H  0.46527516  0.49556327  0.25568344     0.19100
H1136       H  0.38129957  0.65676597  0.25824910     0.12500
C1137       C  0.39190014  0.41218312  0.17675060     0.16300
C1138       C  0.35881312  0.41624445  0.17601532    -0.32700
C1139       C  0.34020114  0.38528930  0.17600781     0.20700
C1140       C  0.35395527  0.35175567  0.17604918     0.02900
C1141       C  0.38707710  0.34770254  0.17610429    -0.22400
C1142       C  0.40564441  0.37864982  0.17679889     0.12100
S1143       S  0.41801241  0.44614577  0.17984006    -0.06100
C1144       C  0.44766927  0.41480871  0.18160233    -0.09600
C1145       C  0.43774685  0.38002849  0.17934022    -0.26200
S1146       S  0.32759156  0.31774160  0.17833593    -0.03400
C1147       C  0.29779599  0.34905717  0.17968719    -0.16800
C1148       C  0.30786906  0.38386301  0.17781104    -0.14800
H1149       H  0.34799500  0.44234730  0.17661839     0.20600
H1150       H  0.39782444  0.32158200  0.17677671     0.16600
H1151       H  0.45268081  0.35680147  0.18069375     0.19100
H1152       H  0.29280806  0.40705004  0.17903064     0.12500
C1153       C  0.73792070  0.28691309  0.00285413     0.16300
C1154       C  0.73950438  0.26442659  0.99068219    -0.32700
C1155       C  0.74814414  0.22900468  0.99309455     0.20700
C1156       C  0.75492397  0.21631780  0.00698302     0.02900
C1157       C  0.75323597  0.23880758  0.01918756    -0.22400
C1158       C  0.74469338  0.27432745  0.01676169     0.12100
S1159       S  0.72702430  0.33054205  0.00224858    -0.06100
C1160       C  0.73148188  0.33183901  0.02095669    -0.09600
C1161       C  0.74125641  0.30009806  0.02719589    -0.26200
S1162       S  0.76660849  0.17285319  0.00741017    -0.03400
C1163       C  0.76263523  0.17205741  0.98865388    -0.16800
C1164       C  0.75221669  0.20366815  0.98257237    -0.14800
H1165       H  0.73435185  0.27415451  0.97977817     0.20600
H1166       H  0.75859211  0.22913690  0.03007901     0.16600
H1167       H  0.74448298  0.29571999  0.03882257     0.19100
H1168       H  0.74928586  0.20843471  0.97095460     0.12500
C1169       C  0.63725437  0.45672739  0.12032158     0.16300
C1170       C  0.62444973  0.47251012  0.13295606    -0.32700
C1171       C  0.60944353  0.45010593  0.14310758     0.20700
C1172       C  0.60755811  0.41365348  0.14082572     0.02900
C1173       C  0.61959456  0.39807658  0.12806120    -0.22400
C1174       C  0.63433919  0.42043193  0.11789467     0.12100
S1175       S  0.65781006  0.47870679  0.10696369    -0.06100
C1176       C  0.66190462  0.43858794  0.09794789    -0.09600
C1177       C  0.64801070  0.40998348  0.10500794    -0.26200
S1178       S  0.58996677  0.39068378  0.15468043    -0.03400
C1179       C  0.58437869  0.43062174  0.16355149    -0.16800
C1180       C  0.59565868  0.46012175  0.15609246    -0.14800
H1181       H  0.62643134  0.50087107  0.13487158     0.20600
H1182       H  0.61789113  0.36966345  0.12621448     0.16600
H1183       H  0.64856801  0.38276641  0.10108148     0.19100
H1184       H  0.59412931  0.48727409  0.16003387     0.12500
C1185       C  0.80894407  0.52548774  0.00202224     0.16300
C1186       C  0.82675084  0.53404909  0.98952737    -0.32700
C1187       C  0.83728439  0.56931506  0.98806355     0.20700
C1188       C  0.83012544  0.59490208  0.99851691     0.02900
C1189       C  0.81267994  0.58625597  0.01107486    -0.22400
C1190       C  0.80247961  0.55096755  0.01261895     0.12100
S1191       S  0.79255564  0.48479149  0.00548798    -0.06100
C1192       C  0.77719837  0.50219255  0.02148620    -0.09600
C1193       C  0.78469360  0.53763630  0.02391918    -0.26200
S1194       S  0.84574563  0.63583308  0.99501778    -0.03400
C1195       C  0.86295323  0.61829687  0.97945167    -0.16800
C1196       C  0.85612540  0.58257750  0.97706972    -0.14800
H1197       H  0.83214216  0.51411712  0.98131533     0.20600
H1198       H  0.80740952  0.60615343  0.01932042     0.16600
H1199       H  0.77615864  0.55331164  0.03307443     0.19100
H1200       H  0.86582576  0.56670028  0.96822889     0.12500
C1201       C  0.84384363  0.36231586  0.07772814     0.16300
C1202       C  0.86904889  0.33805004  0.07668170    -0.32700
C1203       C  0.90009082  0.35179336  0.07672026     0.20700
C1204       C  0.90585076  0.38792349  0.07834779     0.02900
C1205       C  0.88067115  0.41209044  0.07974351    -0.22400
C1206       C  0.84962445  0.39851031  0.07907018     0.12100
S1207       S  0.80463389  0.35153101  0.07562614    -0.06100
C1208       C  0.79604860  0.39635542  0.07597222    -0.09600
C1209       C  0.82227033  0.41816013  0.07815456    -0.26200
S1210       S  0.94488687  0.39970535  0.07663953    -0.03400
C1211       C  0.95349848  0.35562975  0.07321205    -0.16800
C1212       C  0.92738339  0.33308204  0.07387935    -0.14800
H1213       H  0.86462144  0.30995109  0.07499351     0.20600
H1214       H  0.88506019  0.44044109  0.08039080     0.16600
H1215       H  0.82162434  0.44695885  0.07807779     0.19100
H1216       H  0.92799621  0.30486632  0.07146047     0.12500
C1217       C  0.18146265  0.48290206  0.00009587     0.16300
C1218       C  0.16162637  0.47508783  0.01198365    -0.32700
C1219       C  0.15279500  0.43948062  0.01404996     0.20700
C1220       C  0.16348880  0.41279019  0.00477237     0.02900
C1221       C  0.18326254  0.42061361  0.99285362    -0.22400
C1222       C  0.19174275  0.45629615  0.99067061     0.12100
S1223       S  0.19562922  0.52423053  0.99602806    -0.06100
C1224       C  0.21531680  0.50560914  0.98134730    -0.09600
C1225       C  0.21088273  0.46924669  0.97975613    -0.26200
S1226       S  0.14877402  0.37160767  0.00867605    -0.03400
C1227       C  0.12735259  0.39058465  0.02278394    -0.16800
C1228       C  0.13222285  0.42688687  0.02446823    -0.14800
H1229       H  0.15325696  0.49589654  0.01924300     0.20600
H1230       H  0.19134378  0.39985987  0.98549734     0.16600
H1231       H  0.22225482  0.45294342  0.97148327     0.19100
H1232       H  0.11987312  0.44356249  0.03230390     0.12500
C1233       C  0.14695465  0.64493310  0.92467204     0.16300
C1234       C  0.12162451  0.66912142  0.92481041    -0.32700
C1235       C  0.09069311  0.65519526  0.92527820     0.20700
C1236       C  0.08513004  0.61882830  0.92486658     0.02900
C1237       C  0.11044483  0.59465114  0.92431689    -0.22400
C1238       C  0.14140340  0.60855712  0.92460042     0.12100
S1239       S  0.18601984  0.65647285  0.92657081    -0.06100
C1240       C  0.19488563  0.61185782  0.92786841    -0.09600
C1241       C  0.16885513  0.58942508  0.92634016    -0.26200
S1242       S  0.04623164  0.60714381  0.92715846    -0.03400
C1243       C  0.03754168  0.65163212  0.92934934    -0.16800
C1244       C  0.06341106  0.67418815  0.92773178    -0.14800
H1245       H  0.12588457  0.69748596  0.92556226     0.20600
H1246       H  0.10621868  0.56624473  0.92469244     0.16600
H1247       H  0.16967463  0.56075810  0.92743084     0.19100
H1248       H  0.06269940  0.70274528  0.92931476     0.12500
C1249       C  0.37897130  0.55551108  0.86254429     0.16300
C1250       C  0.36645151  0.54062681  0.87534978    -0.32700
C1251       C  0.35108408  0.56350300  0.88521374     0.20700
C1252       C  0.34849677  0.59967831  0.88248713     0.02900
C1253       C  0.36026143  0.61440849  0.86950070    -0.22400
C1254       C  0.37549557  0.59147705  0.85961049     0.12100
S1255       S  0.40011449  0.53261719  0.84965475    -0.06100
C1256       C  0.40388000  0.57176786  0.84006972    -0.09600
C1257       C  0.38938267  0.60088626  0.84661912    -0.26200
S1258       S  0.33103687  0.62334244  0.89626161    -0.03400
C1259       C  0.32664567  0.58400528  0.90566238    -0.16800
C1260       C  0.33803169  0.55422574  0.89842071    -0.14800
H1261       H  0.36909383  0.51253039  0.87765260     0.20600
H1262       H  0.35817093  0.64263890  0.86732917     0.16600
H1263       H  0.38979980  0.62770990  0.84231586     0.19100
H1264       H  0.33753282  0.52745229  0.90276036     0.12500
C1265       C  0.55352736  0.44504911  0.75786629     0.16300
C1266       C  0.56956264  0.41354663  0.75430348    -0.32700
C1267       C  0.58713731  0.41284241  0.74127594     0.20700
C1268       C  0.58870653  0.44214979  0.73214394     0.02900
C1269       C  0.57203439  0.47347003  0.73554712    -0.22400
C1270       C  0.55448047  0.47421316  0.74862945     0.12100
S1271       S  0.53176608  0.45143416  0.77340592    -0.06100
C1272       C  0.52333125  0.49376549  0.76736669    -0.09600
C1273       C  0.53694480  0.50221940  0.75397316    -0.26200
S1274       S  0.61382223  0.43683761  0.71756636    -0.03400
C1275       C  0.62223016  0.39464747  0.72385582    -0.16800
C1276       C  0.60587073  0.38541010  0.73647134    -0.14800
H1277       H  0.56889842  0.39078344  0.76152990     0.20600
H1278       H  0.57326641  0.49649662  0.72848454     0.16600
H1279       H  0.53393143  0.52735972  0.74839445     0.19100
H1280       H  0.60903970  0.36070341  0.74235871     0.12500
C1281       C  0.58649227  0.64170952  0.82591865     0.16300
C1282       C  0.61121933  0.66672953  0.82613144    -0.32700
C1283       C  0.64248560  0.65379018  0.82619967     0.20700
C1284       C  0.64882719  0.61762494  0.82687286     0.02900
C1285       C  0.62408442  0.59266030  0.82710566    -0.22400
C1286       C  0.59287764  0.60551777  0.82619692     0.12100
S1287       S  0.54745562  0.65188532  0.82314155    -0.06100
C1288       C  0.53986242  0.60693365  0.82164089    -0.09600
C1289       C  0.56614483  0.58539270  0.82385287    -0.26200
S1290       S  0.68806393  0.60701196  0.82518678    -0.03400
C1291       C  0.69594944  0.65162595  0.82287347    -0.16800
C1292       C  0.66950450  0.67350017  0.82400757    -0.14800
H1293       H  0.60634191  0.69490560  0.82516391     0.20600
H1294       H  0.62901875  0.56439707  0.82687769     0.16600
H1295       H  0.56613883  0.55670110  0.82274457     0.19100
H1296       H  0.66970097  0.70197731  0.82225335     0.12500
C1297       C  0.61374498  0.08821935  0.54426923     0.16300
C1298       C  0.59910073  0.11775269  0.55057682    -0.32700
C1299       C  0.59818165  0.14901187  0.54240932     0.20700
C1300       C  0.61061209  0.15098459  0.52839675     0.02900
C1301       C  0.62542651  0.12118798  0.52201958    -0.22400
C1302       C  0.62682193  0.08977858  0.53034879     0.12100
S1303       S  0.61954619  0.04922645  0.55317095    -0.06100
C1304       C  0.64054598  0.03460141  0.53817093    -0.09600
C1305       C  0.64207744  0.05865354  0.52668629    -0.26200
S1306       S  0.60571566  0.19177059  0.52031632    -0.03400
C1307       C  0.58729868  0.20595661  0.53616684    -0.16800
C1308       C  0.58523359  0.18029122  0.54694177    -0.14800
H1309       H  0.58940000  0.11663438  0.56154631     0.20600
H1310       H  0.63575785  0.12255771  0.51118665     0.16600
H1311       H  0.65568736  0.05468124  0.51675740     0.19100
H1312       H  0.57383273  0.18395866  0.55747169     0.12500
C1313       C  0.56252572  0.77050050  0.50401184     0.16300
C1314       C  0.58535509  0.77671780  0.51497816    -0.32700
C1315       C  0.59299061  0.81226402  0.51828997     0.20700
C1316       C  0.57809998  0.84018604  0.51115791     0.02900
C1317       C  0.55549149  0.83397889  0.50020049    -0.22400
C1318       C  0.54841287  0.79860689  0.49667405     0.12100
S1319       S  0.54932295  0.72955002  0.49848572    -0.06100
C1320       C  0.52527450  0.75070533  0.48593233    -0.09600
C1321       C  0.52741262  0.78742205  0.48615607    -0.26200
S1322       S  0.59158212  0.88122808  0.51599879    -0.03400
C1323       C  0.61846193  0.86087979  0.52748837    -0.16800
C1324       C  0.61614284  0.82401050  0.52780582    -0.14800
H1325       H  0.59693981  0.75486048  0.52052497     0.20600
H1326       H  0.54435954  0.85582847  0.49445347     0.16600
H1327       H  0.51340418  0.80503066  0.47936310     0.19100
H1328       H  0.63196208  0.80670091  0.53384471     0.12500
C1329       C  0.61151283  0.10181257  0.70351461     0.16300
C1330       C  0.62289479  0.13251727  0.69679894    -0.32700
C1331       C  0.62744650  0.16252396  0.70558166     0.20700
C1332       C  0.62096284  0.16229451  0.72044914     0.02900
C1333       C  0.60886940  0.13153189  0.72717634    -0.22400
C1334       C  0.60443892  0.10119449  0.71833751     0.12100
S1335       S  0.60436423  0.06317319  0.69447355    -0.06100
C1336       C  0.59101421  0.04558247  0.71072093    -0.09600
C1337       C  0.59266427  0.06867789  0.72260129    -0.26200
S1338       S  0.63125235  0.20093107  0.72926638    -0.03400
C1339       C  0.64461468  0.21700980  0.71269796    -0.16800
C1340       C  0.64035013  0.19383608  0.70105620    -0.14800
H1341       H  0.62842587  0.13284938  0.68522179     0.20600
H1342       H  0.60373595  0.13105841  0.73878269     0.16600
H1343       H  0.58424451  0.06264635  0.73350971     0.19100
H1344       H  0.64833527  0.19865457  0.68996599     0.12500
C1345       C  0.50532301  0.78947948  0.75344813     0.16300
C1346       C  0.50743103  0.76414026  0.76460278    -0.32700
C1347       C  0.49870609  0.72902191  0.76118938     0.20700
C1348       C  0.48863035  0.71935192  0.74728397     0.02900
C1349       C  0.48667381  0.74464092  0.73611873    -0.22400
C1350       C  0.49496629  0.77982163  0.73958978     0.12100
S1351       S  0.51568649  0.83333778  0.75516334    -0.06100
C1352       C  0.50587196  0.83867694  0.73700039    -0.09600
C1353       C  0.49487331  0.80794420  0.73018867    -0.26200
S1354       S  0.47703436  0.67591493  0.74566054    -0.03400
C1355       C  0.48512537  0.67090320  0.76402019    -0.16800
C1356       C  0.49710457  0.70126025  0.77077701    -0.14800
H1357       H  0.51520875  0.77152311  0.77550180     0.20600
H1358       H  0.47856309  0.73734741  0.72525865     0.16600
H1359       H  0.48873869  0.80579186  0.71869962     0.19100
H1360       H  0.50238206  0.70358855  0.78234766     0.12500
C1361       C  0.62639421  0.94735777  0.61391484     0.16300
C1362       C  0.61001026  0.96308442  0.62560353    -0.32700
C1363       C  0.60116552  0.94115931  0.63727984     0.20700
C1364       C  0.60840218  0.90516691  0.63735013     0.02900
C1365       C  0.62413734  0.88924276  0.62549210    -0.22400
C1366       C  0.63286821  0.91117090  0.61377267     0.12100
S1367       S  0.64098089  0.96992790  0.59922520    -0.06100
C1368       C  0.65557689  0.93015023  0.59269440    -0.09600
C1369       C  0.64918223  0.90098837  0.60145360    -0.26200
S1370       S  0.59679266  0.88350287  0.65282901    -0.03400
C1371       C  0.58146897  0.92323047  0.65914708    -0.16800
C1372       C  0.58543450  0.95162873  0.64970042    -0.14800
H1373       H  0.60483933  0.99129910  0.62570058     0.20600
H1374       H  0.62973062  0.86112729  0.62549688     0.16600
H1375       H  0.65708509  0.87410962  0.59919597     0.19100
H1376       H  0.57741970  0.97851697  0.65184747     0.12500
C1377       C  0.66107545  0.84861572  0.74506293     0.16300
C1378       C  0.68217428  0.84056568  0.75650300    -0.32700
C1379       C  0.69086513  0.80480282  0.75841114     0.20700
C1380       C  0.67953157  0.77833555  0.74916665     0.02900
C1381       C  0.65837557  0.78637887  0.73776505    -0.22400
C1382       C  0.64933691  0.82204587  0.73598462     0.12100
S1383       S  0.64600681  0.88992009  0.74152374    -0.06100
C1384       C  0.62312121  0.87117312  0.72781688    -0.09600
C1385       C  0.62770876  0.83482087  0.72603661    -0.26200
S1386       S  0.69390612  0.73683067  0.75291062    -0.03400
C1387       C  0.71504550  0.75512917  0.76725800    -0.16800
C1388       C  0.71097212  0.79157790  0.76893026    -0.14800
H1389       H  0.69107884  0.86120585  0.76372540     0.20600
H1390       H  0.64914543  0.76567545  0.73066259     0.16600
H1391       H  0.61460007  0.81823143  0.71841531     0.19100
H1392       H  0.72300741  0.80772404  0.77707178     0.12500
C1393       C  0.74174768  0.73040752  0.48975479     0.16300
C1394       C  0.72993007  0.76522663  0.49044782    -0.32700
C1395       C  0.74023607  0.78694110  0.50201379     0.20700
C1396       C  0.76150659  0.77454697  0.51241698     0.02900
C1397       C  0.77360862  0.73975216  0.51164661    -0.22400
C1398       C  0.76306924  0.71790315  0.50011438     0.12100
S1399       S  0.73259856  0.70051197  0.47634493    -0.06100
C1400       C  0.75787649  0.67061124  0.48464556    -0.09600
C1401       C  0.77227399  0.68341155  0.49730853    -0.26200
S1402       S  0.76895523  0.80405208  0.52624394    -0.03400
C1403       C  0.74281259  0.83328053  0.51802591    -0.16800
C1404       C  0.72978381  0.82077614  0.50504662    -0.14800
H1405       H  0.71314627  0.77485914  0.48238868     0.20600
H1406       H  0.79009819  0.72997566  0.51980513     0.16600
H1407       H  0.78979774  0.66901777  0.50364708     0.19100
H1408       H  0.71178495  0.83456169  0.49876065     0.12500
C1409       C  0.66258858  0.40319852  0.50857521     0.16300
C1410       C  0.68239811  0.41096426  0.49667120    -0.32700
C1411       C  0.69304546  0.44610169  0.49515494     0.20700
C1412       C  0.68475965  0.47223748  0.50519610     0.02900
C1413       C  0.66471520  0.46451352  0.51705876    -0.22400
C1414       C  0.65369251  0.42942376  0.51846365     0.12100
S1415       S  0.64586274  0.36269646  0.51175995    -0.06100
C1416       C  0.62585549  0.38125679  0.52639408    -0.09600
C1417       C  0.63262579  0.41698481  0.52876244    -0.26200
S1418       S  0.70130708  0.51285968  0.50175932    -0.03400
C1419       C  0.71919703  0.49460997  0.48649128    -0.16800
C1420       C  0.71249442  0.45884725  0.48430264    -0.14800
H1421       H  0.68892980  0.39056537  0.48883318     0.20600
H1422       H  0.65783909  0.48500993  0.52478732     0.16600
H1423       H  0.62137160  0.43344801  0.53701288     0.19100
H1424       H  0.72223147  0.44273725  0.47553781     0.12500
C1425       C  0.60323582  0.65365646  0.42432197     0.16300
C1426       C  0.63639816  0.65736546  0.42404918    -0.32700
C1427       C  0.65467683  0.62625587  0.42485367     0.20700
C1428       C  0.64059228  0.59288649  0.42523944     0.02900
C1429       C  0.60747406  0.58912648  0.42478339    -0.22400
C1430       C  0.58919082  0.62026061  0.42464597     0.12100
S1431       S  0.57725088  0.68804323  0.42664473    -0.06100
C1432       C  0.54728119  0.65704788  0.42846156    -0.09600
C1433       C  0.55698422  0.62207301  0.42670823    -0.26200
S1434       S  0.66638880  0.55885191  0.42848539    -0.03400
C1435       C  0.69642373  0.58993828  0.42967029    -0.16800
C1436       C  0.68685158  0.62466649  0.42713239    -0.14800
H1437       H  0.64742388  0.68339099  0.42441580     0.20600
H1438       H  0.59643090  0.56320749  0.42571280     0.16600
H1439       H  0.54181685  0.59908720  0.42823928     0.19100
H1440       H  0.70211161  0.64777794  0.42812381     0.12500
C1441       C  0.87672779  0.58924655  0.36434775     0.16300
C1442       C  0.86139743  0.60439224  0.37647251    -0.32700
C1443       C  0.85334507  0.58194888  0.38810720     0.20700
C1444       C  0.85974965  0.54578953  0.38762222     0.02900
C1445       C  0.87577985  0.53069690  0.37557699    -0.22400
C1446       C  0.88432473  0.55335971  0.36398279     0.12100
S1447       S  0.88772914  0.61220005  0.34912278    -0.06100
C1448       C  0.90366436  0.57342311  0.34218029    -0.09600
C1449       C  0.90024591  0.54413778  0.35131585    -0.26200
S1450       S  0.84608107  0.52294491  0.40255819    -0.03400
C1451       C  0.83243988  0.56274511  0.40964020    -0.16800
C1452       C  0.83819337  0.59188924  0.40077604    -0.14800
H1453       H  0.85583248  0.63250761  0.37678868     0.20600
H1454       H  0.88116854  0.50254761  0.37522237     0.16600
H1455       H  0.90874596  0.51763322  0.34879744     0.19100
H1456       H  0.83087734  0.61884023  0.40330119     0.12500
C1457       C  0.06107968  0.48179248  0.24888925     0.16300
C1458       C  0.08204143  0.47474397  0.23725388    -0.32700
C1459       C  0.09124381  0.43926701  0.23485882     0.20700
C1460       C  0.07959149  0.41203083  0.24353162     0.02900
C1461       C  0.05864319  0.41906588  0.25514756    -0.22400
C1462       C  0.04998290  0.45458870  0.25773204     0.12100
S1463       S  0.04670514  0.52287301  0.25345070    -0.06100
C1464       C  0.02597626  0.50339559  0.26762746    -0.09600
C1465       C  0.03012423  0.46684294  0.26860383    -0.26200
S1466       S  0.09486185  0.37116624  0.23946506    -0.03400
C1467       C  0.11798874  0.39084724  0.22613548    -0.16800
C1468       C  0.11316653  0.42726905  0.22478396    -0.14800
H1469       H  0.09112268  0.49605488  0.23049520     0.20600
H1470       H  0.04996510  0.39782166  0.26205389     0.16600
H1471       H  0.01817499  0.44994709  0.27644846     0.19100
H1472       H  0.12646757  0.44440270  0.21750812     0.12500
C1473       C  0.14595676  0.62269185  0.32619900     0.16300
C1474       C  0.12138498  0.59768484  0.32685382    -0.32700
C1475       C  0.09015877  0.61035745  0.32603707     0.20700
C1476       C  0.08352071  0.64642469  0.32516627     0.02900
C1477       C  0.10814503  0.67155821  0.32478481    -0.22400
C1478       C  0.13946907  0.65874951  0.32505148     0.12100
S1479       S  0.18523232  0.61207771  0.32505262    -0.06100
C1480       C  0.19307939  0.65658640  0.32255779    -0.09600
C1481       C  0.16652137  0.67843592  0.32302532    -0.26200
S1482       S  0.04416884  0.65601993  0.32284175    -0.03400
C1483       C  0.03687807  0.61090752  0.32249482    -0.16800
C1484       C  0.06348718  0.58987002  0.32459781    -0.14800
H1485       H  0.12641678  0.56946288  0.32713886     0.20600
H1486       H  0.10314358  0.69961474  0.32350189     0.16600
H1487       H  0.16678747  0.70684518  0.32111550     0.19100
H1488       H  0.06363102  0.56108741  0.32408705     0.12500
C1489       C  0.10801420  0.10564954  0.22423549     0.16300
C1490       C  0.11901229  0.13755524  0.23062752    -0.32700
C1491       C  0.12813514  0.16523198  0.22114048     0.20700
C1492       C  0.12593851  0.16113238  0.20607991     0.02900
C1493       C  0.11521165  0.12953524  0.19977715    -0.22400
C1494       C  0.10657035  0.10203700  0.20915525     0.12100
S1495       S  0.09485695  0.06879994  0.23347735    -0.06100
C1496       C  0.08765433  0.04878363  0.21673852    -0.09600
C1497       C  0.09534244  0.06969119  0.20483225    -0.26200
S1498       S  0.13881868  0.19633110  0.19622277    -0.03400
C1499       C  0.14833064  0.21720619  0.21244810    -0.16800
C1500       C  0.14098705  0.19777333  0.22492781    -0.14800
H1501       H  0.12054795  0.14057929  0.24238848     0.20600
H1502       H  0.11391621  0.12639930  0.18800712     0.16600
H1503       H  0.09182765  0.06210880  0.19349747     0.19100
H1504       H  0.14624382  0.20613354  0.23601711     0.12500
C1505       C  0.99911229  0.73528182  0.26303111     0.16300
C1506       C  0.01160018  0.76981859  0.26254733    -0.32700
C1507       C  0.00242643  0.79152176  0.25086269     0.20700
C1508       C  0.98166216  0.77934227  0.24014731     0.02900
C1509       C  0.96893006  0.74486902  0.24070318    -0.22400
C1510       C  0.97830190  0.72305696  0.25234321     0.12100
S1511       S  0.00662745  0.70549887  0.27656613    -0.06100
C1512       C  0.98137397  0.67612835  0.26781435    -0.09600
C1513       C  0.96821529  0.68889737  0.25495446    -0.26200
S1514       S  0.97553261  0.80862601  0.22624812    -0.03400
C1515       C  0.00144804  0.83751403  0.23488372    -0.16800
C1516       C  0.01350846  0.82513539  0.24802087    -0.14800
H1517       H  0.02797286  0.77926021  0.27086442     0.20600
H1518       H  0.95280404  0.73529885  0.23230972     0.16600
H1519       H  0.95081442  0.67481288  0.24836822     0.19100
H1520       H  0.03124771  0.83882262  0.25455775     0.12500
C1521       C  0.16123584  0.85452735  0.24723220     0.16300
C1522       C  0.18026141  0.84619378  0.25934384    -0.32700
C1523       C  0.19035646  0.81085166  0.26078908     0.20700
C1524       C  0.18228431  0.78513288  0.25050872     0.02900
C1525       C  0.16328711  0.79346801  0.23841710    -0.22400
C1526       C  0.15288997  0.82867095  0.23706456     0.12100
S1527       S  0.14451707  0.89508537  0.24413125    -0.06100
C1528       C  0.12548031  0.87681771  0.22914652    -0.09600
C1529       C  0.13261723  0.84136109  0.22658393    -0.26200
S1530       S  0.19782682  0.74415602  0.25386107    -0.03400
C1531       C  0.21523758  0.76169675  0.26936229    -0.16800
C1532       C  0.20903908  0.79744777  0.27176027    -0.14800
H1533       H  0.18650068  0.86623152  0.26739556     0.20600
H1534       H  0.15663661  0.77330608  0.23048810     0.16600
H1535       H  0.12183113  0.82507137  0.21812685     0.19100
H1536       H  0.21877076  0.81308438  0.28068296     0.12500
C1537       C  0.12830319  0.10057576  0.04760957     0.16300
C1538       C  0.11725905  0.13207066  0.05390986    -0.32700
C1539       C  0.11054161  0.16040474  0.04458376     0.20700
C1540       C  0.11416510  0.15766090  0.02955202     0.02900
C1541       C  0.12535341  0.12588390  0.02317654    -0.22400
C1542       C  0.13247472  0.09739871  0.03260488     0.12100
S1543       S  0.13930319  0.06436081  0.05740439    -0.06100
C1544       C  0.15045712  0.04434358  0.04122951    -0.09600
C1545       C  0.14508750  0.06481198  0.02881899    -0.26200
S1546       S  0.10322634  0.19533273  0.02028717    -0.03400
C1547       C  0.09392348  0.21462079  0.03693672    -0.16800
C1548       C  0.09932479  0.19282930  0.04885699    -0.14800
H1549       H  0.11432071  0.13451318  0.06564659     0.20600
H1550       H  0.12853099  0.12354757  0.01145578     0.16600
H1551       H  0.15161067  0.05709096  0.01779640     0.19100
H1552       H  0.09414786  0.19984823  0.06011518     0.12500
C1553       C  0.26160985  0.78205468  0.01032461     0.16300
C1554       C  0.27351185  0.74724057  0.00966122    -0.32700
C1555       C  0.26233491  0.72520564  0.99836627     0.20700
C1556       C  0.24058683  0.73752540  0.98815388     0.02900
C1557       C  0.22904735  0.77240546  0.98870014    -0.22400
C1558       C  0.24002825  0.79432674  0.00002748     0.12100
S1559       S  0.26928477  0.81141543  0.02409640    -0.06100
C1560       C  0.24268550  0.84029817  0.01602463    -0.09600
C1561       C  0.22954221  0.82805442  0.00306660    -0.26200
S1562       S  0.23072742  0.70748370  0.97500142    -0.03400
C1563       C  0.25659756  0.67795243  0.98313547    -0.16800
C1564       C  0.27147742  0.69075226  0.99562860    -0.14800
H1565       H  0.29018862  0.73759750  0.01772565     0.20600
H1566       H  0.21198244  0.78185952  0.98076959     0.16600
H1567       H  0.21102330  0.84153503  0.99702060     0.19100
H1568       H  0.28947998  0.67661343  0.00174580     0.12500
C1569       C  0.12976654  0.90928151  0.11516008     0.16300
C1570       C  0.11627494  0.89425588  0.12774377    -0.32700
C1571       C  0.10724559  0.91740331  0.13908670     0.20700
C1572       C  0.11085860  0.95394382  0.13783348     0.02900
C1573       C  0.12486198  0.96890585  0.12535878    -0.22400
C1574       C  0.13445586  0.94571296  0.11413583     0.12100
S1575       S  0.14231082  0.88579471  0.10020723    -0.06100
C1576       C  0.15493275  0.92534471  0.09267744    -0.09600
C1577       C  0.14920150  0.95506403  0.10131512    -0.26200
S1578       S  0.09651582  0.97762601  0.15239552    -0.03400
C1579       C  0.08635673  0.93784406  0.16044811    -0.16800
C1580       C  0.09363834  0.90796331  0.15215679    -0.14800
H1581       H  0.11296644  0.86577429  0.12865367     0.20600
H1582       H  0.12808885  0.99739131  0.12443054     0.16600
H1583       H  0.15565219  0.98202033  0.09839933     0.19100
H1584       H  0.08823314  0.88087801  0.15531197     0.12500
C1585       C  0.05600228  0.78017514  0.00251309     0.16300
C1586       C  0.07682183  0.78823982  0.01407299    -0.32700
C1587       C  0.08810362  0.82329287  0.01522021     0.20700
C1588       C  0.07887455  0.84925827  0.00536173     0.02900
C1589       C  0.05809114  0.84116553  0.99376961    -0.22400
C1590       C  0.04708268  0.80598707  0.99251806     0.12100
S1591       S  0.03915224  0.73947046  0.99946821    -0.06100
C1592       C  0.02010874  0.75715180  0.98442791    -0.09600
C1593       C  0.02672511  0.79284003  0.98201079    -0.26200
S1594       S  0.09630976  0.88977180  0.00828519    -0.03400
C1595       C  0.11671255  0.87147621  0.02282855    -0.16800
C1596       C  0.10965731  0.83588576  0.02529207    -0.14800
H1597       H  0.08407757  0.76799502  0.02178826     0.20600
H1598       H  0.05109235  0.86132286  0.98596898     0.16600
H1599       H  0.01629111  0.80862526  0.97335908     0.19100
H1600       H  0.12090227  0.81957230  0.03355715     0.12500
C1601       C  0.11643166  0.58873960  0.54629111     0.16300
C1602       C  0.10116469  0.61781492  0.55270962    -0.32700
C1603       C  0.09589429  0.64762498  0.54395930     0.20700
C1604       C  0.10459036  0.64834647  0.52933519     0.02900
C1605       C  0.11949218  0.61887850  0.52281627    -0.22400
C1606       C  0.12547622  0.58918138  0.53168863     0.12100
S1607       S  0.12816472  0.55212773  0.55566065    -0.06100
C1608       C  0.14613867  0.53726667  0.53985785    -0.09600
C1609       C  0.14225327  0.55923758  0.52784016    -0.26200
S1610       S  0.09612046  0.68760809  0.52074203    -0.03400
C1611       C  0.08118792  0.70311221  0.53712758    -0.16800
C1612       C  0.08263181  0.67884260  0.54848432    -0.14800
H1613       H  0.09466875  0.61768127  0.56418122     0.20600
H1614       H  0.12691541  0.61947160  0.51147796     0.16600
H1615       H  0.15309802  0.55486836  0.51724142     0.19100
H1616       H  0.07400417  0.68360287  0.55949013     0.12500
C1617       C  0.15827381  0.90128703  0.50632338     0.16300
C1618       C  0.17700633  0.91061793  0.49422671    -0.32700
C1619       C  0.18794489  0.94584776  0.49342125     0.20700
C1620       C  0.18088352  0.97052089  0.50425730     0.02900
C1621       C  0.16206682  0.96121945  0.51629574    -0.22400
C1622       C  0.15089340  0.92613583  0.51704078     0.12100
S1623       S  0.14111500  0.86062837  0.50891919    -0.06100
C1624       C  0.12326703  0.87747228  0.52447891    -0.09600
C1625       C  0.13097148  0.91261442  0.52750908    -0.26200
S1626       S  0.19746047  0.01144641  0.50163300    -0.03400
C1627       C  0.21390960  0.99536712  0.48567167    -0.16800
C1628       C  0.20665269  0.96006651  0.48262733    -0.14800
H1629       H  0.18253823  0.89138368  0.48575270     0.20600
H1630       H  0.15624290  0.98055634  0.52468348     0.16600
H1631       H  0.12104569  0.92810299  0.53641383     0.19100
H1632       H  0.21563032  0.94521790  0.47332874     0.12500
C1633       C  0.92679530  0.72471155  0.49996599     0.16300
C1634       C  0.90678241  0.71717511  0.48809262    -0.32700
C1635       C  0.89915440  0.68143637  0.48544711     0.20700
C1636       C  0.91106902  0.65445814  0.49419013     0.02900
C1637       C  0.93079208  0.66200596  0.50613579    -0.22400
C1638       C  0.93814522  0.69771134  0.50886176     0.12100
S1639       S  0.94034213  0.76604882  0.50449809    -0.06100
C1640       C  0.96113142  0.74669114  0.51862163    -0.09600
C1641       C  0.95747545  0.71024418  0.51975354    -0.26200
S1642       S  0.89789081  0.61308168  0.48968779    -0.03400
C1643       C  0.87535567  0.63227316  0.47606684    -0.16800
C1644       C  0.87875438  0.66883980  0.47493742    -0.14800
H1645       H  0.89756046  0.73822012  0.48123293     0.20600
H1646       H  0.93981692  0.64098359  0.51306697     0.16600
H1647       H  0.96980370  0.69360287  0.52757477     0.19100
H1648       H  0.86529648  0.68557033  0.46756004     0.12500
C1649       C  0.85278178  0.91447334  0.57490538     0.16300
C1650       C  0.88593184  0.91839164  0.57403479    -0.32700
C1651       C  0.90453157  0.88755454  0.57532592     0.20700
C1652       C  0.89073881  0.85457816  0.57779690     0.02900
C1653       C  0.85778074  0.85090006  0.57914702    -0.22400
C1654       C  0.83918537  0.88142583  0.57740905     0.12100
S1655       S  0.82587105  0.94724895  0.57124009    -0.06100
C1656       C  0.79613841  0.91577867  0.57272656    -0.09600
C1657       C  0.80673919  0.88210896  0.57638280    -0.26200
S1658       S  0.91651706  0.81974121  0.57709789    -0.03400
C1659       C  0.94631321  0.84968566  0.57324635    -0.16800
C1660       C  0.93666793  0.88497775  0.57292718    -0.14800
H1661       H  0.89659658  0.94388190  0.57154689     0.20600
H1662       H  0.84697932  0.82498323  0.58053556     0.16600
H1663       H  0.79174533  0.85874629  0.57711382     0.19100
H1664       H  0.95177344  0.90711505  0.56990714     0.12500
C1665       C  0.12668597  0.59169621  0.70626562     0.16300
C1666       C  0.14053887  0.62118903  0.69955404    -0.32700
C1667       C  0.14208947  0.65281103  0.70761147     0.20700
C1668       C  0.13143009  0.65489456  0.72193612     0.02900
C1669       C  0.11797540  0.62504975  0.72878386    -0.22400
C1670       C  0.11549308  0.59351971  0.72053141     0.12100
S1671       S  0.11881735  0.55277826  0.69747421    -0.06100
C1672       C  0.09935925  0.53881338  0.71299446    -0.09600
C1673       C  0.10012660  0.56280056  0.72456995    -0.26200
S1674       S  0.13595359  0.69610493  0.72973765    -0.03400
C1675       C  0.15169293  0.71059167  0.71337368    -0.16800
C1676       C  0.15344449  0.68454221  0.70263550    -0.14800
H1677       H  0.14862708  0.61993071  0.68830716     0.20600
H1678       H  0.10892851  0.62665484  0.73985953     0.16600
H1679       H  0.08781035  0.55921116  0.73486590     0.19100
H1680       H  0.16344081  0.68833102  0.69182409     0.12500
C1681       C  0.10869751  0.79784232  0.61398081     0.16300
C1682       C  0.12353724  0.78284859  0.62622432    -0.32700
C1683       C  0.13437767  0.80618999  0.63714697     0.20700
C1684       C  0.13017958  0.84269144  0.63602103     0.02900
C1685       C  0.11589563  0.85765630  0.62370428    -0.22400
C1686       C  0.10556209  0.83444490  0.61271002     0.12100
S1687       S  0.09266823  0.77429959  0.59976465    -0.06100
C1688       C  0.08246925  0.81434555  0.59197933    -0.09600
C1689       C  0.09098560  0.84408320  0.59999619    -0.26200
S1690       S  0.14413140  0.86657059  0.65050004    -0.03400
C1691       C  0.15663180  0.82709999  0.65801423    -0.16800
C1692       C  0.14986928  0.79703993  0.64975941    -0.14800
H1693       H  0.12639825  0.75432946  0.62721623     0.20600
H1694       H  0.11291572  0.88616909  0.62274176     0.16600
H1695       H  0.08582210  0.87126304  0.59689714     0.19100
H1696       H  0.15604613  0.77009014  0.65279747     0.12500
C1697       C  0.08393888  0.93915313  0.73182249     0.16300
C1698       C  0.06619180  0.97006370  0.73467245    -0.32700
C1699       C  0.05151186  0.97308943  0.74843227     0.20700
C1700       C  0.05463907  0.94663880  0.75887401     0.02900
C1701       C  0.07195537  0.91565875  0.75595811    -0.22400
C1702       C  0.08630471  0.91248203  0.74220151     0.12100
S1703       S  0.10560368  0.93130599  0.71631058    -0.06100
C1704       C  0.11766153  0.89153496  0.72388925    -0.09600
C1705       C  0.10511042  0.88491889  0.73762891    -0.26200
S1706       S  0.03528227  0.95499405  0.77486933    -0.03400
C1707       C  0.02202818  0.99430851  0.76739973    -0.16800
C1708       C  0.03269071  0.00061510  0.75326016    -0.14800
H1709       H  0.06418094  0.99094366  0.72659384     0.20600
H1710       H  0.07430165  0.89497722  0.76410841     0.16600
H1711       H  0.11117032  0.86224539  0.74435845     0.19100
H1712       H  0.02637461  0.02357155  0.74675388     0.12500
C1713       C  0.30064680  0.69224867  0.73894345     0.16300
C1714       C  0.31788370  0.66104171  0.74151751    -0.32700
C1715       C  0.33186273  0.65697736  0.75532680     0.20700
C1716       C  0.32878358  0.68281986  0.76610218     0.02900
C1717       C  0.31119532  0.71385857  0.76358596    -0.22400
C1718       C  0.29730848  0.71798318  0.74974921     0.12100
S1719       S  0.28223521  0.70220327  0.72287702    -0.06100
C1720       C  0.26964109  0.74142061  0.73079487    -0.09600
C1721       C  0.27948198  0.74634076  0.74514130    -0.26200
S1722       S  0.34990232  0.67438932  0.78163278    -0.03400
C1723       C  0.36321613  0.63568953  0.77350733    -0.16800
C1724       C  0.35122967  0.62961127  0.75958292    -0.14800
H1725       H  0.32071083  0.64107281  0.73304505     0.20600
H1726       H  0.30898289  0.73421186  0.77193998     0.16600
H1727       H  0.27344501  0.76906430  0.75190597     0.19100
H1728       H  0.35820142  0.60775458  0.75252769     0.12500
C1729       C  0.38972837  0.90671026  0.67477618     0.16300
C1730       C  0.35672857  0.91133100  0.67422867    -0.32700
C1731       C  0.33776611  0.88069941  0.67410064     0.20700
C1732       C  0.35104918  0.84693407  0.67393217     0.02900
C1733       C  0.38412184  0.84233130  0.67389990    -0.22400
C1734       C  0.40308851  0.87297394  0.67463865     0.12100
S1735       S  0.41622569  0.94026421  0.67768951    -0.06100
C1736       C  0.44558390  0.90851328  0.67915288    -0.09600
C1737       C  0.43530094  0.87387046  0.67693042    -0.26200
S1738       S  0.32415669  0.81329992  0.67591271    -0.03400
C1739       C  0.29482219  0.84512285  0.67736548    -0.16800
C1740       C  0.30545377  0.87980737  0.67582359    -0.14800
H1741       H  0.34625726  0.93759383  0.67495787     0.20600
H1742       H  0.39454522  0.81602493  0.67437184     0.16600
H1743       H  0.45009829  0.85047155  0.67807775     0.19100
H1744       H  0.29074667  0.90324320  0.67716158     0.12500
C1745       C  0.35143621  0.40573169  0.95416342     0.16300
C1746       C  0.36072378  0.37279222  0.94851877    -0.32700
C1747       C  0.37291259  0.34781988  0.95830330     0.20700
C1748       C  0.37541325  0.35489965  0.97315487     0.02900
C1749       C  0.36562661  0.38796279  0.97888856    -0.22400
C1750       C  0.35373554  0.41334380  0.96898915     0.12100
S1751       S  0.33690982  0.43934469  0.94378885    -0.06100
C1752       C  0.33355548  0.46452727  0.95949979    -0.09600
C1753       C  0.34336351  0.44730215  0.97217196    -0.26200
S1754       S  0.39294883  0.32128534  0.98289618    -0.03400
C1755       C  0.39741539  0.29814179  0.96666338    -0.16800
C1756       C  0.38518605  0.31543816  0.95455586    -0.14800
H1757       H  0.35914595  0.36714096  0.93692171     0.20600
H1758       H  0.36781480  0.39388361  0.99043883     0.16600
H1759       H  0.34245689  0.45869345  0.98305645     0.19100
H1760       H  0.38662594  0.30557802  0.94342896     0.12500
C1761       C  0.57955401  0.32502964  0.02283342     0.16300
C1762       C  0.56153477  0.29458879  0.01954128    -0.32700
C1763       C  0.54953086  0.29114481  0.00525793     0.20700
C1764       C  0.55521853  0.31680879  0.99471969     0.02900
C1765       C  0.57289370  0.34739363  0.99805763    -0.22400
C1766       C  0.58475129  0.35091668  0.01234033     0.12100
S1767       S  0.59865441  0.33279066  0.03907187    -0.06100
C1768       C  0.61367334  0.37146551  0.03165807    -0.09600
C1769       C  0.60379896  0.37784015  0.01741081    -0.26200
S1770       S  0.53854240  0.30780562  0.97806650    -0.03400
C1771       C  0.52328032  0.26920368  0.98539397    -0.16800
C1772       C  0.53123810  0.26373178  0.99996660    -0.14800
H1773       H  0.55744733  0.27423496  0.02768524     0.20600
H1774       H  0.57746702  0.36743763  0.98983559     0.16600
H1775       H  0.61217206  0.39961061  0.01069544     0.19100
H1776       H  0.52334760  0.24136028  0.00646182     0.12500
C1777       C  0.65422166  0.14702652  0.92976475     0.16300
C1778       C  0.62976142  0.17244525  0.92965723    -0.32700
C1779       C  0.59825350  0.16000919  0.92979770     0.20700
C1780       C  0.59150696  0.12389294  0.92948451     0.02900
C1781       C  0.61593183  0.09854502  0.92938267    -0.22400
C1782       C  0.64736883  0.11093250  0.92979886     0.12100
S1783       S  0.69374921  0.15660309  0.93141680    -0.06100
C1784       C  0.70107176  0.11152369  0.93267000    -0.09600
C1785       C  0.67413617  0.09041439  0.93141034    -0.26200
S1786       S  0.55207745  0.11392860  0.93083135    -0.03400
C1787       C  0.54440170  0.15882967  0.93235638    -0.16800
C1788       C  0.57125546  0.18027907  0.93141029    -0.14800
H1789       H  0.63506157  0.20062042  0.93019459     0.20600
H1790       H  0.61062282  0.07036506  0.92972023     0.16600
H1791       H  0.67391309  0.06172477  0.93244403     0.19100
H1792       H  0.57123745  0.20893537  0.93268747     0.12500
C1793       C  0.33264488  0.07507005  0.98626906     0.16300
C1794       C  0.31468344  0.04423687  0.98886403    -0.32700
C1795       C  0.30236754  0.03925948  0.00299932     0.20700
C1796       C  0.30770916  0.06382124  0.01408281     0.02900
C1797       C  0.32545649  0.09478935  0.01145721    -0.22400
C1798       C  0.33763588  0.09984955  0.99730253     0.12100
S1799       S  0.35158547  0.08479702  0.97020059    -0.06100
C1800       C  0.36633077  0.12283008  0.97838596    -0.09600
C1801       C  0.35653394  0.12749073  0.99279173    -0.26200
S1802       S  0.29035699  0.05304692  0.03041191    -0.03400
C1803       C  0.27531970  0.01519648  0.02219462    -0.16800
C1804       C  0.28389674  0.01131400  0.00758801    -0.14800
H1805       H  0.31074141  0.02479004  0.98027866     0.20600
H1806       H  0.32972757  0.11402578  0.02009141     0.16600
H1807       H  0.36458630  0.14875443  0.99992284     0.19100
H1808       H  0.27622814  0.98969221  0.00055471     0.12500
C1809       C  0.37706457  0.40412634  0.77928063     0.16300
C1810       C  0.36469934  0.37236030  0.77330476    -0.32700
C1811       C  0.35635767  0.34493334  0.78307277     0.20700
C1812       C  0.36012599  0.34922671  0.79805437     0.02900
C1813       C  0.37233784  0.38074322  0.80397033    -0.22400
C1814       C  0.38064380  0.40790569  0.79427778     0.12100
S1815       S  0.38982423  0.44043865  0.76953059    -0.06100
C1816       C  0.40015832  0.46053246  0.78590551    -0.09600
C1817       C  0.39358406  0.43997225  0.79810889    -0.26200
S1818       S  0.34792120  0.31397933  0.80822810    -0.03400
C1819       C  0.33731698  0.29265704  0.79221997    -0.16800
C1820       C  0.34336516  0.31222012  0.77961688    -0.14800
H1821       H  0.36180314  0.36913475  0.76159966     0.20600
H1822       H  0.37524237  0.38397475  0.81568237     0.16600
H1823       H  0.39897593  0.44762290  0.80928349     0.19100
H1824       H  0.33744744  0.30359862  0.76862779     0.12500
C1825       C  0.23469549  0.02499843  0.76093060     0.16300
C1826       C  0.22078534  0.99126309  0.75955461    -0.32700
C1827       C  0.23322733  0.96819966  0.74893283     0.20700
C1828       C  0.25817108  0.97844107  0.73995412     0.02900
C1829       C  0.27203494  0.01224422  0.74130044    -0.22400
C1830       C  0.25969847  0.03526606  0.75198662     0.12100
S1831       S  0.22468694  0.05552795  0.77394568    -0.06100
C1832       C  0.25467118  0.08242336  0.76738872    -0.09600
C1833       C  0.27100504  0.06849567  0.75550791    -0.26200
S1834       S  0.26850199  0.94747936  0.72713845    -0.03400
C1835       C  0.23888781  0.92040639  0.73393584    -0.16800
C1836       C  0.22231469  0.93471232  0.74565989    -0.14800
H1837       H  0.20130968  0.98322024  0.76655972     0.20600
H1838       H  0.29160490  0.02021934  0.73433898     0.16600
H1839       H  0.29157987  0.08076392  0.75047693     0.19100
H1840       H  0.20192776  0.92235482  0.75081669     0.12500
C1841       C  0.38158524  0.20770000  0.88851713     0.16300
C1842       C  0.36710083  0.22220117  0.87601941    -0.32700
C1843       C  0.35356632  0.19846778  0.86583939     0.20700
C1844       C  0.35485333  0.16196772  0.86794457     0.02900
C1845       C  0.36870601  0.14757153  0.88054035    -0.22400
C1846       C  0.38181938  0.17124667  0.89077492     0.12100
S1847       S  0.40034351  0.23161384  0.90197778    -0.06100
C1848       C  0.40779682  0.19207786  0.91087837    -0.09600
C1849       C  0.39644608  0.16218430  0.90363489    -0.26200
S1850       S  0.33873181  0.13743784  0.85407206    -0.03400
C1851       C  0.32941235  0.17667975  0.84540863    -0.16800
C1852       C  0.33847886  0.20714318  0.85297243    -0.14800
H1853       H  0.36661320  0.25066568  0.87425759     0.20600
H1854       H  0.36944891  0.11908473  0.88223811     0.16600
H1855       H  0.39931018  0.13512664  0.90744854     0.19100
H1856       H  0.33477895  0.23404447  0.84913233     0.12500
C1857       C  0.16041759  0.34564992  0.74769694     0.16300
C1858       C  0.17937466  0.33744323  0.75986942    -0.32700
C1859       C  0.18921119  0.30203578  0.76153969     0.20700
C1860       C  0.18088474  0.27606662  0.75141672     0.02900
C1861       C  0.16166972  0.28421609  0.73931708    -0.22400
C1862       C  0.15157269  0.31956773  0.73772401     0.12100
S1863       S  0.14481121  0.38658467  0.74416694    -0.06100
C1864       C  0.12544141  0.36837035  0.72924625    -0.09600
C1865       C  0.13158896  0.33244405  0.72707463    -0.26200
S1866       S  0.19683247  0.23521159  0.75488525    -0.03400
C1867       C  0.21466514  0.25312855  0.77024351    -0.16800
C1868       C  0.20822719  0.28891936  0.77249969    -0.14800
H1869       H  0.18601177  0.35774629  0.76774153     0.20600
H1870       H  0.15487538  0.26387528  0.73149165     0.16600
H1871       H  0.12059349  0.31615238  0.71867710     0.19100
H1872       H  0.21824130  0.30488188  0.78125807     0.12500
C1873       C  0.08640913  0.13358555  0.82648658     0.16300
C1874       C  0.11121896  0.15832095  0.82759277    -0.32700
C1875       C  0.14241008  0.14535496  0.82690201     0.20700
C1876       C  0.14866239  0.10920334  0.82586891     0.02900
C1877       C  0.12383169  0.08437023  0.82510874    -0.22400
C1878       C  0.09262932  0.09749400  0.82511655     0.12100
S1879       S  0.04727393  0.14459778  0.82480892    -0.06100
C1880       C  0.03922107  0.10025819  0.82171758    -0.09600
C1881       C  0.06557193  0.07815448  0.82247129    -0.26200
S1882       S  0.18789452  0.09907609  0.82370508    -0.03400
C1883       C  0.19582770  0.14407991  0.82354179    -0.16800
C1884       C  0.16942574  0.16552429  0.82565305    -0.14800
H1885       H  0.10641530  0.18660568  0.82800829     0.20600
H1886       H  0.12864560  0.05628428  0.82363121     0.16600
H1887       H  0.06526785  0.04983265  0.82024287     0.19100
H1888       H  0.16967706  0.19431799  0.82529566     0.12500
C1889       C  0.43982558  0.06654848  0.74168229     0.16300
C1890       C  0.42381903  0.09796701  0.74558795    -0.32700
C1891       C  0.40817546  0.09883710  0.75917742     0.20700
C1892       C  0.40846153  0.06973637  0.76844836     0.02900
C1893       C  0.42472176  0.03852142  0.76461806    -0.22400
C1894       C  0.44029217  0.03763643  0.75104804     0.12100
S1895       S  0.46020655  0.05989254  0.72568957    -0.06100
C1896       C  0.46975157  0.01781708  0.73177200    -0.09600
C1897       C  0.45737997  0.00969114  0.74544149    -0.26200
S1898       S  0.38593740  0.07490226  0.78385223    -0.03400
C1899       C  0.37575630  0.11676992  0.77778044    -0.16800
C1900       C  0.38977927  0.12608855  0.76456361    -0.14800
H1901       H  0.42322902  0.12056278  0.73827788     0.20600
H1902       H  0.42479240  0.01567684  0.77180244     0.16600
H1903       H  0.46119199  0.98482030  0.75112168     0.19100
H1904       H  0.38498065  0.15048136  0.75869494     0.12500
C1905       C  0.63266928  0.65813585  0.20562781     0.16300
C1906       C  0.62255181  0.62587100  0.19969270    -0.32700
C1907       C  0.61471921  0.59872347  0.20940607     0.20700
C1908       C  0.61680520  0.60316675  0.22443955     0.02900
C1909       C  0.62749421  0.63554722  0.23043627    -0.22400
C1910       C  0.63527451  0.66299652  0.22063886     0.12100
S1911       S  0.64335943  0.69375311  0.19542333    -0.06100
C1912       C  0.65202464  0.71583251  0.21146626    -0.09600
C1913       C  0.64639204  0.69638674  0.22410253    -0.26200
S1914       S  0.60351360  0.56726256  0.23419616    -0.03400
C1915       C  0.59494116  0.54660093  0.21775530    -0.16800
C1916       C  0.60275222  0.56639744  0.20553747    -0.14800
H1917       H  0.62049831  0.62220798  0.18796076     0.20600
H1918       H  0.62919017  0.63935083  0.24216498     0.16600
H1919       H  0.65140188  0.70558404  0.23511213     0.19100
H1920       H  0.59814709  0.55841262  0.19432423     0.12500
C1921       C  0.58061414  0.91454008  0.24688394     0.16300
C1922       C  0.56162104  0.92360237  0.25894999    -0.32700
C1923       C  0.54879081  0.95802658  0.25947042     0.20700
C1924       C  0.55422579  0.98227157  0.24835633     0.02900
C1925       C  0.57347261  0.97328821  0.23631092    -0.22400
C1926       C  0.58666894  0.93891509  0.23588478     0.12100
S1927       S  0.59930732  0.87461115  0.24462038    -0.06100
C1928       C  0.61615712  0.89085748  0.22878008    -0.09600
C1929       C  0.60713202  0.92551709  0.22546746    -0.26200
S1930       S  0.53541301  0.02221341  0.25084448    -0.03400
C1931       C  0.52047404  0.00626987  0.26716367    -0.16800
C1932       C  0.52973751  0.97170070  0.27032373    -0.14800
H1933       H  0.55725218  0.90469894  0.26763388     0.20600
H1934       H  0.57809168  0.99230619  0.22769775     0.16600
H1935       H  0.61609152  0.94061552  0.21627928     0.19100
H1936       H  0.52216295  0.95693913  0.27986230     0.12500
C1937       C  0.80520775  0.72430713  0.25181731     0.16300
C1938       C  0.82282050  0.71464840  0.26418975    -0.32700
C1939       C  0.83424525  0.67972671  0.26490445     0.20700
C1940       C  0.82831569  0.65534381  0.25381463     0.02900
C1941       C  0.81065550  0.66502750  0.24138219    -0.22400
C1942       C  0.79936632  0.70016115  0.24061928     0.12100
S1943       S  0.78859885  0.76509680  0.24925201    -0.06100
C1944       C  0.77345408  0.74979389  0.23285556    -0.09600
C1945       C  0.78134609  0.71477152  0.22958506    -0.26200
S1946       S  0.84595708  0.61493195  0.25645015    -0.03400
C1947       C  0.86197368  0.63133887  0.27253711    -0.16800
C1948       C  0.85326951  0.66608729  0.27569733    -0.14800
H1949       H  0.82757592  0.73363954  0.27286149     0.20600
H1950       H  0.80620446  0.64614595  0.23263762     0.16600
H1951       H  0.77316670  0.70034945  0.22001416     0.19100
H1952       H  0.86206955  0.68137490  0.28492140     0.12500
C1953       C  0.90308178  0.87080321  0.17720926     0.16300
C1954       C  0.87814021  0.84609077  0.17722033    -0.32700
C1955       C  0.84702818  0.85939925  0.17773134     0.20700
C1956       C  0.84096436  0.89566595  0.17772027     0.02900
C1957       C  0.86588267  0.92035389  0.17746951    -0.22400
C1958       C  0.89698746  0.90705962  0.17745984     0.12100
S1959       S  0.94235697  0.86005230  0.17859150    -0.06100
C1960       C  0.95054857  0.90485753  0.17999585    -0.09600
C1961       C  0.92415968  0.92675530  0.17897378    -0.26200
S1962       S  0.80182940  0.90653067  0.17960172    -0.03400
C1963       C  0.79358186  0.86176263  0.18085841    -0.16800
C1964       C  0.81987279  0.83976383  0.17947308    -0.14800
H1965       H  0.88280818  0.81777882  0.17759993     0.20600
H1966       H  0.86125188  0.94866297  0.17803889     0.16600
H1967       H  0.92459352  0.95540988  0.18025966     0.19100
H1968       H  0.81938683  0.81107661  0.18052407     0.12500
C1969       C  0.61837962  0.65685491  0.03001931     0.16300
C1970       C  0.63003696  0.62466685  0.02416072    -0.32700
C1971       C  0.63878263  0.59775122  0.03408800     0.20700
C1972       C  0.63618951  0.60303784  0.04907030     0.02900
C1973       C  0.62489415  0.63497841  0.05485073    -0.22400
C1974       C  0.61604995  0.66151593  0.04502740     0.12100
S1975       S  0.60458381  0.69245453  0.02015343    -0.06100
C1976       C  0.59537797  0.71318383  0.03652412    -0.09600
C1977       C  0.60325092  0.69355935  0.04878800    -0.26200
S1978       S  0.64824847  0.56831372  0.05947768    -0.03400
C1979       C  0.65727519  0.54579732  0.04358900    -0.16800
C1980       C  0.65086144  0.56455814  0.03082117    -0.14800
H1981       H  0.63186781  0.62066013  0.01245882     0.20600
H1982       H  0.62282668  0.63888124  0.06655441     0.16600
H1983       H  0.59861321  0.70170262  0.05996500     0.19100
H1984       H  0.65580628  0.55500999  0.01986731     0.12500
C1985       C  0.49574888  0.04399021  0.00431618     0.16300
C1986       C  0.49734557  0.01993899  0.01595635    -0.32700
C1987       C  0.50398907  0.98424933  0.01261368     0.20700
C1988       C  0.50923688  0.97290891  0.99836977     0.02900
C1989       C  0.50779111  0.99699840  0.98673389    -0.22400
C1990       C  0.50089387  0.03264249  0.99006408     0.12100
S1991       S  0.48571599  0.08792851  0.00591064    -0.06100
C1992       C  0.48811351  0.09093971  0.98713593    -0.09600
C1993       C  0.49690592  0.05950782  0.98020391    -0.26200
S1994       S  0.51800947  0.92861591  0.99674032    -0.03400
C1995       C  0.51445028  0.92534680  0.01547032    -0.16800
C1996       C  0.50668826  0.95708471  0.02242428    -0.14800
H1997       H  0.49317925  0.02855951  0.02712003     0.20600
H1998       H  0.51162748  0.98830554  0.97555454     0.16600
H1999       H  0.49851165  0.05592675  0.96845483     0.19100
H2000       H  0.50439378  0.96046094  0.03415834     0.12500
C2001       C  0.61003741  0.80466066  0.11484517     0.16300
C2002       C  0.62733408  0.79041185  0.12661191    -0.32700
C2003       C  0.63694199  0.81375598  0.13783583     0.20700
C2004       C  0.62930415  0.84961788  0.13744117     0.02900
C2005       C  0.61258192  0.86398981  0.12555385    -0.22400
C2006       C  0.60336021  0.84073840  0.11425573     0.12100
S2007       S  0.59564024  0.78076797  0.10026227    -0.06100
C2008       C  0.58135858  0.81997169  0.09308105    -0.09600
C2009       C  0.58726003  0.84972115  0.10172775    -0.26200
S2010       S  0.64182375  0.87321647  0.15239298    -0.03400
C2011       C  0.65809361  0.83453430  0.15919702    -0.16800
C2012       C  0.65385885  0.80502271  0.15020912    -0.14800
H2013       H  0.63294687  0.76233096  0.12702967     0.20600
H2014       H  0.60691078  0.89206928  0.12515157     0.16600
H2015       H  0.57994383  0.87652281  0.09901316     0.19100
H2016       H  0.66229095  0.77851515  0.15269930     0.12500
C2017       C  0.66679742  0.93566331  0.02062248     0.16300
C2018       C  0.68377971  0.96719169  0.01789322    -0.32700
C2019       C  0.69773718  0.97121532  0.00401311     0.20700
C2020       C  0.69504069  0.94488623  0.99341665     0.02900
C2021       C  0.67882538  0.91310898  0.99627218    -0.22400
C2022       C  0.66475830  0.90918667  0.01006692     0.12100
S2023       S  0.64474819  0.92735865  0.03597361    -0.06100
C2024       C  0.63256308  0.88786685  0.02802668    -0.09600
C2025       C  0.64575615  0.88149630  0.01435200    -0.26200
S2026       S  0.71258779  0.95498537  0.97714563    -0.03400
C2027       C  0.72422662  0.99509000  0.98463337    -0.16800
C2028       C  0.71472119  0.00008805  0.99906732    -0.14800
H2029       H  0.68522570  0.98808642  0.02605668     0.20600
H2030       H  0.67653472  0.89268512  0.98794504     0.16600
H2031       H  0.63958408  0.85922959  0.00734201     0.19100
H2032       H  0.72025329  0.02334149  0.00562471     0.12500
C2033       C  0.43693938  0.72803120  0.99604334     0.16300
C2034       C  0.41666032  0.72072692  0.98417963    -0.32700
C2035       C  0.40493461  0.68590925  0.98267137     0.20700
C2036       C  0.41336760  0.65944984  0.99245805     0.02900
C2037       C  0.43348228  0.66679546  0.00438251    -0.22400
C2038       C  0.44483211  0.70175090  0.00600969     0.12100
S2039       S  0.45416205  0.76835923  0.99957242    -0.06100
C2040       C  0.47182507  0.74993467  0.01481027    -0.09600
C2041       C  0.46455561  0.71424894  0.01690871    -0.26200
S2042       S  0.39568896  0.61933986  0.98907594    -0.03400
C2043       C  0.37600419  0.63846855  0.97449097    -0.16800
C2044       C  0.38356381  0.67405117  0.97232442    -0.14800
H2045       H  0.41010348  0.74137616  0.97652232     0.20600
H2046       H  0.43969029  0.64625711  0.01215286     0.16600
H2047       H  0.47403901  0.69803518  0.02565546     0.19100
H2048       H  0.37270806  0.69087058  0.96412721     0.12500
C2049       C  0.33845208  0.86130296  0.07474492     0.16300
C2050       C  0.36324310  0.83642405  0.07375122    -0.32700
C2051       C  0.39450599  0.84955593  0.07329497     0.20700
C2052       C  0.40076997  0.88570021  0.07440738     0.02900
C2053       C  0.37607311  0.91043466  0.07570219    -0.22400
C2054       C  0.34485608  0.89745957  0.07553954     0.12100
S2055       S  0.29897416  0.85129951  0.07317020    -0.06100
C2056       C  0.29120382  0.89635254  0.07294471    -0.09600
C2057       C  0.31785831  0.91767703  0.07462931    -0.26200
S2058       S  0.43981398  0.89677654  0.07248438    -0.03400
C2059       C  0.44795269  0.85235835  0.06972127    -0.16800
C2060       C  0.42158949  0.83017920  0.07063205    -0.14800
H2061       H  0.35830627  0.80829091  0.07252248     0.20600
H2062       H  0.38093336  0.93872669  0.07595349     0.16600
H2063       H  0.31776478  0.94645695  0.07410560     0.19100
H2064       H  0.42197318  0.80172683  0.06873252     0.12500
C2065       C  0.86811878  0.34848471  0.29900639     0.16300
C2066       C  0.87991906  0.38010748  0.30487464    -0.32700
C2067       C  0.88826731  0.40696405  0.29509917     0.20700
C2068       C  0.88563199  0.40268634  0.28008010     0.02900
C2069       C  0.87403953  0.37066672  0.27414595    -0.22400
C2070       C  0.86519124  0.34375275  0.28399946     0.12100
S2071       S  0.85431969  0.31424542  0.30927405    -0.06100
C2072       C  0.84390979  0.29314244  0.29324012    -0.09600
C2073       C  0.85155463  0.31158858  0.28058541    -0.26200
S2074       S  0.89756611  0.43912406  0.27026010    -0.03400
C2075       C  0.90591614  0.45996871  0.28666852    -0.16800
C2076       C  0.89963677  0.43954994  0.29891116    -0.14800
H2077       H  0.88187691  0.38391472  0.31659108     0.20600
H2078       H  0.87153479  0.36711695  0.26244411     0.16600
H2079       H  0.84579584  0.30289048  0.26959031     0.19100
H2080       H  0.90383528  0.44783236  0.31011428     0.12500
C2081       C  0.76330916  0.03731749  0.24986532     0.16300
C2082       C  0.76586154  0.01237616  0.23853597    -0.32700
C2083       C  0.75534025  0.97769845  0.24138460     0.20700
C2084       C  0.74319713  0.96806440  0.25491134     0.02900
C2085       C  0.74094121  0.99288309  0.26625248    -0.22400
C2086       C  0.75096914  0.02761852  0.26333914     0.12100
S2087       S  0.77529080  0.08066351  0.24885014    -0.06100
C2088       C  0.76365241  0.08548230  0.26681715    -0.09600
C2089       C  0.75075678  0.05517766  0.27301996    -0.26200
S2090       S  0.72911806  0.92559909  0.25579508    -0.03400
C2091       C  0.73877746  0.92113610  0.23760038    -0.16800
C2092       C  0.75335245  0.95063389  0.23146572    -0.14800
H2093       H  0.77513621  0.01977367  0.22791682     0.20600
H2094       H  0.73116963  0.98564351  0.27679553     0.16600
H2095       H  0.74316027  0.05286181  0.28430385     0.19100
H2096       H  0.75986590  0.95312347  0.22004502     0.12500
C2097       C  0.68488103  0.28147602  0.25121479     0.16300
C2098       C  0.66620986  0.29129355  0.23909973    -0.32700
C2099       C  0.65072326  0.32442440  0.23961927     0.20700
C2100       C  0.65399380  0.34676826  0.25163428     0.02900
C2101       C  0.67218897  0.33672870  0.26380770    -0.22400
C2102       C  0.68741325  0.30357431  0.26334049     0.12100
S2103       S  0.70668926  0.24321531  0.25252842    -0.06100
C2104       C  0.71902922  0.25692831  0.26968448    -0.09600
C2105       C  0.70661074  0.28948759  0.27402456    -0.26200
S2106       S  0.63356389  0.38574249  0.25026621    -0.03400
C2107       C  0.61969944  0.37180871  0.23340925    -0.16800
C2108       C  0.63083993  0.33854310  0.22913229    -0.14800
H2109       H  0.66396417  0.27394218  0.22966985     0.20600
H2110       H  0.67442855  0.35408320  0.27324045     0.16600
H2111       H  0.71220117  0.30274739  0.28425174     0.19100
H2112       H  0.62409835  0.32503798  0.21911169     0.12500
C2113       C  0.64943040  0.11427086  0.32662607     0.16300
C2114       C  0.62451932  0.08949204  0.32700459    -0.32700
C2115       C  0.59335425  0.10272178  0.32719782     0.20700
C2116       C  0.58730363  0.13897479  0.32773726     0.02900
C2117       C  0.61223165  0.16371977  0.32770511    -0.22400
C2118       C  0.64332972  0.15052750  0.32678200     0.12100
S2119       S  0.68849214  0.10362934  0.32420903    -0.06100
C2120       C  0.69659290  0.14848397  0.32288291    -0.09600
C2121       C  0.67032746  0.17032696  0.32467490    -0.26200
S2122       S  0.54809008  0.14987168  0.32633774    -0.03400
C2123       C  0.53980873  0.10523490  0.32427356    -0.16800
C2124       C  0.56611336  0.08315535  0.32532078    -0.14800
H2125       H  0.62917062  0.06122096  0.32621417     0.20600
H2126       H  0.60750626  0.19202195  0.32744118     0.16600
H2127       H  0.67067991  0.19902705  0.32370683     0.19100
H2128       H  0.56563645  0.05460914  0.32368528     0.12500
C2129       C  0.93965711  0.06502729  0.24359298     0.16300
C2130       C  0.92561809  0.09736322  0.24766241    -0.32700
C2131       C  0.91107092  0.09926994  0.26144265     0.20700
C2132       C  0.91049360  0.07027994  0.27076912     0.02900
C2133       C  0.92490756  0.03803862  0.26677623    -0.22400
C2134       C  0.93942211  0.03612448  0.25297402     0.12100
S2135       S  0.95862215  0.05748972  0.22738393    -0.06100
C2136       C  0.96685178  0.01505021  0.23336363    -0.09600
C2137       C  0.95497776  0.00730947  0.24715804    -0.26200
S2138       S  0.88884878  0.07692055  0.28633678    -0.03400
C2139       C  0.88010037  0.11912529  0.28014640    -0.16800
C2140       C  0.89418184  0.12754408  0.26687099    -0.14800
H2141       H  0.92562489  0.11989816  0.24031839     0.20600
H2142       H  0.92431476  0.01526255  0.27398843     0.16600
H2143       H  0.95843873  0.98235556  0.25282118     0.19100
H2144       H  0.88997684  0.15188938  0.26087542     0.12500
C2145       C  0.88645956  0.35079027  0.47689972     0.16300
C2146       C  0.87253876  0.38111358  0.48326689    -0.32700
C2147       C  0.86754107  0.41079238  0.47420608     0.20700
C2148       C  0.87692931  0.41046423  0.45964746     0.02900
C2149       C  0.89137101  0.38069291  0.45343776    -0.22400
C2150       C  0.89530023  0.35088982  0.46229758     0.12100
S2151       S  0.89314359  0.31102148  0.48552359    -0.06100
C2152       C  0.90727729  0.29461551  0.46911078    -0.09600
C2153       C  0.90702471  0.31900246  0.45779717    -0.26200
S2154       S  0.86608942  0.44681424  0.44992057    -0.03400
C2155       C  0.84772197  0.46262689  0.46544826    -0.16800
C2156       C  0.85107816  0.44124616  0.47770442    -0.14800
H2157       H  0.86481735  0.38107775  0.49456385     0.20600
H2158       H  0.89793021  0.38019599  0.44197674     0.16600
H2159       H  0.91541149  0.31383719  0.44678358     0.19100
H2160       H  0.83991024  0.44626923  0.48818074     0.12500
C2161       C  0.00061232  0.01888238  0.49037039     0.16300
C2162       C  0.01398515  0.98485473  0.49103406    -0.32700
C2163       C  0.00322389  0.96213782  0.50206879     0.20700
C2164       C  0.98008884  0.97280216  0.51197706     0.02900
C2165       C  0.96650783  0.00674998  0.51123807    -0.22400
C2166       C  0.97749644  0.02959598  0.50027512     0.12100
S2167       S  0.00978386  0.04977107  0.47749122    -0.06100
C2168       C  0.98214290  0.07749822  0.48549467    -0.09600
C2169       C  0.96700088  0.06346707  0.49763005    -0.26200
S2170       S  0.97224657  0.94258978  0.52531189    -0.03400
C2171       C  0.00074614  0.91550908  0.51755982    -0.16800
C2172       C  0.01483894  0.92895211  0.50507637    -0.14800
H2173       H  0.03219022  0.97658065  0.48337167     0.20600
H2174       H  0.94857756  0.01517672  0.51901060     0.16600
H2175       H  0.94803995  0.07646305  0.50362165     0.19100
H2176       H  0.03427229  0.91642850  0.49923767     0.12500
C2177       C  0.85060852  0.16474035  0.36977962     0.16300
C2178       C  0.86274217  0.14960484  0.38257066    -0.32700
C2179       C  0.87799491  0.17215157  0.39257055     0.20700
C2180       C  0.88119932  0.20830109  0.39001019     0.02900
C2181       C  0.86817724  0.22372828  0.37733522    -0.22400
C2182       C  0.85274454  0.20104778  0.36728416     0.12100
S2183       S  0.83324723  0.14110464  0.35599735    -0.06100
C2184       C  0.82800628  0.18047199  0.34676473    -0.09600
C2185       C  0.83922831  0.21040458  0.35410659    -0.26200
S2186       S  0.90272980  0.23031485  0.40318094    -0.03400
C2187       C  0.90692009  0.19034324  0.41222733    -0.16800
C2188       C  0.89221749  0.16185614  0.40533179    -0.14800
H2189       H  0.86097047  0.12126543  0.38450263     0.20600
H2190       H  0.87052388  0.25194726  0.37526340     0.16600
H2191       H  0.83832734  0.23724154  0.34986371     0.19100
H2192       H  0.89269304  0.13470165  0.40925117     0.12500
C2193       C  0.08016575  0.34495160  0.50988390     0.16300
C2194       C  0.06050775  0.33583127  0.49806654    -0.32700
C2195       C  0.04916876  0.30081952  0.49730593     0.20700
C2196       C  0.05627638  0.27614259  0.50805556     0.02900
C2197       C  0.07599303  0.28530170  0.51992625    -0.22400
C2198       C  0.08805842  0.32018676  0.52048964     0.12100
S2199       S  0.09836786  0.38514128  0.51195048    -0.06100
C2200       C  0.11784773  0.36836826  0.52704626    -0.09600
C2201       C  0.10964068  0.33353149  0.53043923    -0.26200
S2202       S  0.03927668  0.23528632  0.50522404    -0.03400
C2203       C  0.02312773  0.25147673  0.48920159    -0.16800
C2204       C  0.03048107  0.28677899  0.48642350    -0.14800
H2205       H  0.05492912  0.35498906  0.48962419     0.20600
H2206       H  0.08216431  0.26591295  0.52818555     0.16600
H2207       H  0.12034744  0.31810604  0.53912761     0.19100
H2208       H  0.02185207  0.30171692  0.47711895     0.12500
C2209       C  0.15187411  0.13724756  0.42850855     0.16300
C2210       C  0.12761034  0.16275898  0.42876054    -0.32700
C2211       C  0.09613443  0.15045049  0.42908019     0.20700
C2212       C  0.08909819  0.11440588  0.42854801     0.02900
C2213       C  0.11333694  0.08893557  0.42806054    -0.22400
C2214       C  0.14479576  0.10119779  0.42835302     0.12100
S2215       S  0.19140796  0.14664500  0.43013311    -0.06100
C2216       C  0.19834208  0.10154893  0.43117714    -0.09600
C2217       C  0.17138981  0.08055941  0.42983511    -0.26200
S2218       S  0.04969559  0.10467969  0.43027040    -0.03400
C2219       C  0.04266717  0.14956678  0.43229150    -0.16800
C2220       C  0.06951976  0.17082182  0.43119230    -0.14800
H2221       H  0.13305186  0.19086960  0.42952080     0.20600
H2222       H  0.10791943  0.06077338  0.42828990     0.16600
H2223       H  0.17103418  0.05186061  0.43083212     0.19100
H2224       H  0.06980518  0.19940188  0.43273090     0.12500
C2225       C  0.82656463  0.07057914  0.48340611     0.16300
C2226       C  0.81010339  0.03903073  0.48649884    -0.32700
C2227       C  0.79305746  0.03743962  0.49966680     0.20700
C2228       C  0.79194772  0.06621726  0.50919225     0.02900
C2229       C  0.80782531  0.09801819  0.50594501    -0.22400
C2230       C  0.82535816  0.09938546  0.49291213     0.12100
S2231       S  0.85172020  0.07620320  0.46895822    -0.06100
C2232       C  0.86116356  0.11765105  0.47588957    -0.09600
C2233       C  0.84482743  0.12665607  0.48855907    -0.26200
S2234       S  0.77111174  0.05853247  0.52487372    -0.03400
C2235       C  0.76391629  0.01596422  0.51860088    -0.16800
C2236       C  0.77682929  0.00855391  0.50496388    -0.14800
H2237       H  0.81149749  0.01626980  0.47922754     0.20600
H2238       H  0.80743695  0.12029093  0.51349492     0.16600
H2239       H  0.84878854  0.15071434  0.49486333     0.19100
H2240       H  0.77461189  0.98335043  0.49927150     0.12500
loop_ 
_geom_bond_atom_site_label_1 
_geom_bond_atom_site_label_2 
_geom_bond_distance 
_geom_bond_site_symmetry_2 
_ccdc_geom_bond_type 
Fe1          O17   2.098       .  S
Fe1           O7   2.028       .  S
Fe1          O14   2.054   1_655  S
Fe1           O6   2.092       .  S
Fe1          O12   1.945       .  S
Fe2           O5   2.079       .  S
Fe2           O9   2.047       .  S
Fe2          O13   2.075       .  S
Fe2          O18   2.037       .  S
Fe2          O12   1.944       .  S
Fe3          O21   2.062       .  S
Fe3           O8   2.099       .  S
Fe3          O15   2.105       .  S
Fe3           O4   2.062       .  S
Fe3          O12   1.956       .  S
O4           C11   1.269   1_655  A
O5           C19   1.272       .  A
O6           C11   1.275   1_655  A
O7           C10   1.266       .  A
O8           C20   1.276       .  A
O9           C22   1.268       .  A
C10          O15   1.276       .  A
C10        C2152   1.471       .  S
C11        C2203   1.477       .  S
O13          C16   1.270   1_655  A
O14          C16   1.267       .  A
C16        C2219   1.469       .  S
O17          C22   1.275       .  A
O18          C20   1.264       .  A
C19          O21   1.270       .  A
C19        C2232   1.474       .  S
C20        C2168   1.465       .  S
C22        C2187   1.476       .  S
Fe23         O39   2.096       .  S
Fe23         O29   2.042       .  S
Fe23         O36   2.063       .  S
Fe23         O28   2.096       .  S
Fe23         O34   1.957       .  S
Fe24         O27   2.076       .  S
Fe24         O31   2.048       .  S
Fe24         O35   2.068       .  S
Fe24         O40   2.035       .  S
Fe24         O34   1.954       .  S
Fe25         O43   2.060       .  S
Fe25         O30   2.082       .  S
Fe25         O37   2.087       .  S
Fe25         O26   2.061       .  S
Fe25         O34   1.966       .  S
O26          C33   1.268       .  A
O27          C41   1.271       .  A
O28          C33   1.275       .  A
O29          C32   1.267       .  A
O30          C42   1.271       .  A
O31          C44   1.268       .  A
C32          O37   1.273       .  A
C32        C2072   1.466       .  S
C33        C2104   1.480       .  S
O35          C38   1.268       .  A
O36          C38   1.269       .  A
C38        C2120   1.472       .  S
O39          C44   1.274       .  A
O40          C42   1.265       .  A
C41          O43   1.270       .  A
C41        C2139   1.474       .  S
C42        C2088   1.464       .  S
C44        C2184   1.473       .  S
Fe45         O61   2.062       .  S
Fe45         O51   2.101       .  S
Fe45         O58   2.098       .  S
Fe45         O50   2.041       .  S
Fe45         O56   1.959       .  S
Fe46         O49   2.040       .  S
Fe46         O53   2.075       .  S
Fe46         O57   2.052       .  S
Fe46         O62   2.085       .  S
Fe46         O56   1.958       .  S
Fe47         O65   2.093       .  S
Fe47         O52   2.060       .  S
Fe47         O59   2.060       .  S
Fe47         O48   2.105       .  S
Fe47         O56   1.962       .  S
O48          C55   1.275       .  A
O49          C63   1.265       .  A
O50          C55   1.268       .  A
O51          C54   1.275       .  A
O52          C64   1.272       .  A
O53          C66   1.272       .  A
C54          O59   1.268       .  A
C54        C2040   1.480       .  S
C55        C1976   1.476       .  S
O57          C60   1.266       .  A
O58          C60   1.274       .  A
C60        C2008   1.478       .  S
O61          C66   1.270       .  A
O62          C64   1.274       .  A
C63          O65   1.273       .  A
C63        C1995   1.474       .  S
C64        C2024   1.477       .  S
C66        C2059   1.473       .  S
Fe67         O83   2.049       .  S
Fe67         O73   2.106       .  S
Fe67         O80   2.102       .  S
Fe67         O72   2.033       .  S
Fe67         O78   1.947       .  S
Fe68         O71   2.035       .  S
Fe68         O75   2.080       .  S
Fe68         O79   2.053       .  S
Fe68         O84   2.099       .  S
Fe68         O78   1.948       .  S
Fe69         O87   2.085       .  S
Fe69         O74   2.057       .  S
Fe69         O81   2.045       .  S
Fe69         O70   2.101       .  S
Fe69         O78   1.949       .  S
O70          C77   1.276       .  A
O71          C85   1.265       .  A
O72          C77   1.266       .  A
O73          C76   1.275       .  A
O74          C86   1.270       .  A
O75          C88   1.271       .  A
C76          O81   1.265       .  A
C76        C1944   1.476       .  S
C77        C1912   1.468       .  S
O79          C82   1.269       .  A
O80          C82   1.277       .  A
C82        C2011   1.479       .  S
O83          C88   1.267       .  A
O84          C86   1.276       .  A
C85          O87   1.273       .  A
C85        C2091   1.463       .  S
C86        C1928   1.481       .  S
C88        C1963   1.469       .  S
Fe89        O105   2.098       .  S
Fe89         O95   2.042       .  S
Fe89        O102   2.061       .  S
Fe89         O94   2.100       .  S
Fe89        O100   1.952       .  S
Fe90         O93   2.086       .  S
Fe90         O97   2.048       .  S
Fe90        O101   2.071       .  S
Fe90        O106   2.040       .  S
Fe90        O100   1.949       .  S
Fe91        O109   2.060       .  S
Fe91         O96   2.105       .  S
Fe91        O103   2.114       .  S
Fe91         O92   2.053       .  S
Fe91        O100   1.957       .  S
O92          C99   1.267       .  A
O93         C107   1.273       .  A
O94          C99   1.275       .  A
O95          C98   1.267       .  A
O96         C108   1.276       .  A
O97         C110   1.269       .  A
C98         O103   1.278       .  A
C98        C1819   1.479       .  S
C99        C1867   1.475       .  S
O101        C104   1.268       .  A
O102        C104   1.269       .  A
C104       C1883   1.471       .  S
O105        C110   1.276       .  A
O106        C108   1.264       .  A
C107        O109   1.270       .  A
C107       C1899   1.477       .  S
C108       C1832   1.469       .  S
C110       C1851   1.473       .  S
Fe111       O127   2.086       .  S
Fe111       O117   2.048       .  S
Fe111       O124   2.065       .  S
Fe111       O116   2.081       .  S
Fe111       O122   1.961       .  S
Fe112       O115   2.084       .  S
Fe112       O119   2.056       .  S
Fe112       O123   2.079       .  S
Fe112       O128   2.042       .  S
Fe112       O122   1.958       .  S
Fe113       O131   2.059       .  S
Fe113       O118   2.091       .  S
Fe113       O125   2.101       .  S
Fe113       O114   2.057       .  S
Fe113       O122   1.964       .  S
O114        C121   1.267       .  A
O115        C129   1.273       .  A
O116        C121   1.270       .  A
O117        C120   1.270       .  A
O118        C130   1.274       .  A
O119        C132   1.268       .  A
C120        O125   1.277       .  A
C120       C1755   1.474       .  S
C121       C1771   1.475       .  S
O123        C126   1.272       .  A
O124        C126   1.270       .  A
C126       C1787   1.476       .  S
O127        C132   1.271       .  A
O128        C130   1.266       .  A
C129        O131   1.270       .  A
C129       C1800   1.478       .  S
C130       C1992   1.473       .  S
C132       C1848   1.476       .  S
Fe133       O149   2.050       .  S
Fe133       O139   2.072       .  S
Fe133       O146   2.077       .  S
Fe133       O138   2.040       .  S
Fe133       O144   1.948       .  S
Fe134       O137   2.041       .  S
Fe134       O141   2.077       .  S
Fe134       O145   2.042       .  S
Fe134       O150   2.087       .  S
Fe134       O144   1.948       .  S
Fe135       O153   2.099       .  S
Fe135       O140   2.057       .  S
Fe135       O147   2.062       .  S
Fe135       O136   2.098       .  S
Fe135       O144   1.956       .  S
O136        C143   1.274       .  A
O137        C151   1.263       .  A
O138        C143   1.267       .  A
O139        C142   1.272       .  A
O140        C152   1.272       .  A
O141        C154   1.271       .  A
C142        O147   1.272       .  A
C142       C1720   1.470       .  S
C143       C1675   1.473       .  S
O145        C148   1.266       .  A
O146        C148   1.272       .  A
C148       C1691   1.463       .  S
O149        C154   1.266       .  A
O150        C152   1.274       .  A
C151        O153   1.274       .  A
C151       C1835   1.469       .  S
C152       C1704   1.473       .  S
C154       C1739   1.470       .  S
Fe155       O171   2.044   1_455  S
Fe155       O161   2.085   1_455  S
Fe155       O168   2.077       .  S
Fe155       O160   2.032       .  S
Fe155       O166   1.943       .  S
Fe156       O159   2.032       .  S
Fe156       O163   2.083       .  S
Fe156       O167   2.045       .  S
Fe156       O172   2.097       .  S
Fe156       O166   1.943       .  S
Fe157       O175   2.097       .  S
Fe157       O162   2.046       .  S
Fe157       O169   2.043   1_455  S
Fe157       O158   2.102       .  S
Fe157       O166   1.946       .  S
O158        C165   1.276       .  A
O159        C173   1.262       .  A
O160        C165   1.266       .  A
O161        C164   1.273       .  A
O162        C174   1.267       .  A
O163        C176   1.271   1_455  A
C164        O169   1.265       .  A
C164       C1640   1.461       .  S
C165       C1611   1.471       .  S
O167        C170   1.269       .  A
O168        C170   1.272       .  A
C170       C1688   1.460       .  S
O171        C176   1.266       .  A
O172        C174   1.276       .  A
C173        O175   1.274       .  A
C173       C2171   1.463       .  S
C174       C1624   1.474       .  S
C176       C1659   1.468       .  S
Fe177       O193   2.056       .  S
Fe177       O183   2.093       .  S
Fe177       O190   2.094       .  S
Fe177       O182   2.039   1_565  S
Fe177       O188   1.946       .  S
Fe178       O181   2.032       .  S
Fe178       O185   2.078       .  S
Fe178       O189   2.052       .  S
Fe178       O194   2.090       .  S
Fe178       O188   1.951       .  S
Fe179       O197   2.104       .  S
Fe179       O184   2.060       .  S
Fe179       O191   2.059       .  S
Fe179       O180   2.108       .  S
Fe179       O188   1.957       .  S
O180        C187   1.278   1_565  A
O181        C195   1.263       .  A
O182        C187   1.268       .  A
O183        C186   1.273       .  A
O184        C196   1.269       .  A
O185        C198   1.270       .  A
C186        O191   1.268       .  A
C186       C1803   1.480   1_565  S
C187       C1544   1.474       .  S
O189        C192   1.268       .  A
O190        C192   1.275       .  A
C192       C1576   1.473       .  S
O193        C198   1.269       .  A
O194        C196   1.273       .  A
C195        O197   1.277       .  A
C195       C1560   1.466       .  S
C196       C1595   1.480       .  S
C198       C2056   1.472       .  S
Fe199       O215   2.049   1_455  S
Fe199       O205   2.086   1_465  S
Fe199       O212   2.085       .  S
Fe199       O204   2.038   1_565  S
Fe199       O210   1.941       .  S
Fe200       O203   2.040       .  S
Fe200       O207   2.077       .  S
Fe200       O211   2.057       .  S
Fe200       O216   2.090       .  S
Fe200       O210   1.949       .  S
Fe201       O219   2.102       .  S
Fe201       O206   2.045       .  S
Fe201       O213   2.055   1_455  S
Fe201       O202   2.105       .  S
Fe201       O210   1.952       .  S
O202        C209   1.276   1_565  A
O203        C217   1.263       .  A
O204        C209   1.269       .  A
O205        C208   1.272   1_545  A
O206        C218   1.267       .  A
O207        C220   1.272   1_455  A
C208        O213   1.267       .  A
C208       C2136   1.473   1_565  S
C209       C1496   1.474       .  S
O211        C214   1.268       .  A
O212        C214   1.272       .  A
C214       C1579   1.472       .  S
O215        C220   1.269       .  A
O216        C218   1.276       .  A
C217        O219   1.275       .  A
C217       C1515   1.470       .  S
C218       C1528   1.470       .  S
C220       C1960   1.467       .  S
Fe221       O237   2.112       .  S
Fe221       O227   2.024       .  S
Fe221       O234   2.044   1_655  S
Fe221       O226   2.115       .  S
Fe221       O232   1.941       .  S
Fe222       O225   2.094       .  S
Fe222       O229   2.049       .  S
Fe222       O233   2.083       .  S
Fe222       O238   2.033       .  S
Fe222       O232   1.937       .  S
Fe223       O241   2.049       .  S
Fe223       O228   2.109       .  S
Fe223       O235   2.112       .  S
Fe223       O224   2.051       .  S
Fe223       O232   1.947       .  S
O224        C231   1.266   1_655  A
O225        C239   1.276       .  A
O226        C231   1.277   1_655  A
O227        C230   1.266       .  A
O228        C240   1.277       .  A
O229        C242   1.268       .  A
C230        O235   1.279       .  A
C230       C2075   1.470       .  S
C231       C1464   1.479       .  S
O233        C236   1.272   1_655  A
O234        C236   1.268       .  A
C236       C1483   1.466       .  S
O237        C242   1.277       .  A
O238        C240   1.263       .  A
C239        O241   1.267       .  A
C239       C1947   1.475       .  S
C240       C1512   1.469       .  S
C242       C1448   1.480       .  S
Fe243       O259   2.092       .  S
Fe243       O249   2.032       .  S
Fe243       O256   2.049       .  S
Fe243       O248   2.106       .  S
Fe243       O254   1.941       .  S
Fe244       O247   2.098       .  S
Fe244       O251   2.062       .  S
Fe244       O255   2.083       .  S
Fe244       O260   2.045       .  S
Fe244       O254   1.946       .  S
Fe245       O263   2.036       .  S
Fe245       O250   2.108       .  S
Fe245       O257   2.103       .  S
Fe245       O246   2.051       .  S
Fe245       O254   1.951       .  S
O246        C253   1.268       .  A
O247        C261   1.276       .  A
O248        C253   1.278       .  A
O249        C252   1.263       .  A
O250        C262   1.276       .  A
O251        C264   1.270       .  A
C252        O257   1.274       .  A
C252       C2155   1.467       .  S
C253       C1419   1.476       .  S
O255        C258   1.274       .  A
O256        C258   1.269       .  A
C258       C1435   1.470       .  S
O259        C264   1.274       .  A
O260        C262   1.265       .  A
C261        O263   1.265       .  A
C261       C1643   1.467       .  S
C262       C1400   1.476       .  S
C264       C1451   1.478       .  S
Fe265       O281   2.039       .  S
Fe265       O271   2.105   1_565  S
Fe265       O278   2.092       .  S
Fe265       O270   2.027   1_565  S
Fe265       O276   1.937       .  S
Fe266       O269   2.032       .  S
Fe266       O273   2.092       .  S
Fe266       O277   2.046       .  S
Fe266       O282   2.100       .  S
Fe266       O276   1.940       .  S
Fe267       O285   2.105       .  S
Fe267       O272   2.057       .  S
Fe267       O279   2.054       .  S
Fe267       O268   2.113       .  S
Fe267       O276   1.949       .  S
O268        C275   1.277   1_565  A
O269        C283   1.263       .  A
O270        C275   1.263       .  A
O271        C274   1.277   1_545  A
O272        C284   1.271       .  A
O273        C286   1.275       .  A
C274        O279   1.269       .  A
C274       C1896   1.479   1_565  S
C275       C1336   1.469       .  S
O277        C280   1.267       .  A
O278        C280   1.275       .  A
C280       C1371   1.472       .  S
O281        C286   1.266       .  A
O282        C284   1.278       .  A
C283        O285   1.275       .  A
C283       C1352   1.472       .  S
C284       C1384   1.479       .  S
C286       C1736   1.469       .  S
Fe287       O303   2.046       .  S
Fe287       O293   2.088       .  S
Fe287       O300   2.076       .  S
Fe287       O292   2.033       .  S
Fe287       O298   1.937       .  S
Fe288       O291   2.044       .  S
Fe288       O295   2.089       .  S
Fe288       O299   2.058       .  S
Fe288       O304   2.105       .  S
Fe288       O298   1.947       .  S
Fe289       O307   2.107       .  S
Fe289       O294   2.044       .  S
Fe289       O301   2.056       .  S
Fe289       O290   2.107       .  S
Fe289       O298   1.946       .  S
O290        C297   1.275   1_565  A
O291        C305   1.264       .  A
O292        C297   1.264   1_565  A
O293        C296   1.273       .  A
O294        C306   1.268       .  A
O295        C308   1.276       .  A
C296        O301   1.270       .  A
C296       C2235   1.473   1_565  S
C297       C1304   1.466       .  S
O299        C302   1.268       .  A
O300        C302   1.271       .  A
C302       C1368   1.468       .  S
O303        C308   1.268       .  A
O304        C306   1.277       .  A
C305        O307   1.277       .  A
C305       C1403   1.476       .  S
C306       C1323   1.473       .  S
C308       C1656   1.471       .  S
Fe309       O325   2.083       .  S
Fe309       O315   2.045       .  S
Fe309       O322   2.062       .  S
Fe309       O314   2.083       .  S
Fe309       O320   1.953       .  S
Fe310       O313   2.066       .  S
Fe310       O317   2.052       .  S
Fe310       O321   2.069       .  S
Fe310       O326   2.043       .  S
Fe310       O320   1.958       .  S
Fe311       O329   2.062       .  S
Fe311       O316   2.096       .  S
Fe311       O323   2.110       .  S
Fe311       O312   2.063       .  S
Fe311       O320   1.964       .  S
O312        C319   1.268       .  A
O313        C327   1.269       .  A
O314        C319   1.271       .  A
O315        C318   1.269       .  A
O316        C328   1.275       .  A
O317        C330   1.267       .  A
C318        O323   1.278       .  A
C318       C1816   1.481       .  S
C319       C1272   1.475       .  S
O321        C324   1.269       .  A
O322        C324   1.270       .  A
C324       C1288   1.471       .  S
O325        C330   1.272       .  A
O326        C328   1.267       .  A
C327        O329   1.270       .  A
C327       C1723   1.470       .  S
C328       C1355   1.473       .  S
C330       C1256   1.472       .  S
Fe331       O347   2.097       .  S
Fe331       O337   2.034       .  S
Fe331       O344   2.051       .  S
Fe331       O336   2.102       .  S
Fe331       O342   1.939       .  S
Fe332       O335   2.111       .  S
Fe332       O339   2.043       .  S
Fe332       O343   2.087       .  S
Fe332       O348   2.025       .  S
Fe332       O342   1.939       .  S
Fe333       O351   2.048       .  S
Fe333       O338   2.110       .  S
Fe333       O345   2.115       .  S
Fe333       O334   2.048       .  S
Fe333       O342   1.948       .  S
O334        C341   1.267       .  A
O335        C349   1.279       .  A
O336        C341   1.276       .  A
O337        C340   1.266       .  A
O338        C350   1.276       .  A
O339        C352   1.268       .  A
C340        O345   1.278       .  A
C340       C1752   1.475       .  S
C341       C1224   1.471       .  S
O343        C346   1.273       .  A
O344        C346   1.268       .  A
C346       C1240   1.472       .  S
O347        C352   1.276       .  A
O348        C350   1.260       .  A
C349        O351   1.269       .  A
C349       C2043   1.481       .  S
C350       C1563   1.467       .  S
C352       C1259   1.468       .  S
Fe353       O369   2.053       .  S
Fe353       O359   2.093       .  S
Fe353       O366   2.087       .  S
Fe353       O358   2.036       .  S
Fe353       O364   1.952       .  S
Fe354       O357   2.039       .  S
Fe354       O361   2.082       .  S
Fe354       O365   2.050       .  S
Fe354       O370   2.085       .  S
Fe354       O364   1.957       .  S
Fe355       O373   2.083       .  S
Fe355       O360   2.055       .  S
Fe355       O367   2.051       .  S
Fe355       O356   2.106       .  S
Fe355       O364   1.956       .  S
O356        C363   1.276       .  A
O357        C371   1.266       .  A
O358        C363   1.266       .  A
O359        C362   1.274       .  A
O360        C372   1.270       .  A
O361        C374   1.272       .  A
C362        O367   1.265       .  A
C362       C1192   1.473       .  S
C363       C1979   1.473       .  S
O365        C368   1.268       .  A
O366        C368   1.273       .  A
C368       C1176   1.472       .  S
O369        C374   1.268       .  A
O370        C372   1.273       .  A
C371        O373   1.273       .  A
C371       C1160   1.465       .  S
C372       C1768   1.474       .  S
C374       C1208   1.472       .  S
Fe375       O391   2.050       .  S
Fe375       O381   2.086       .  S
Fe375       O388   2.081       .  S
Fe375       O380   2.035       .  S
Fe375       O386   1.949       .  S
Fe376       O379   2.036       .  S
Fe376       O383   2.088       .  S
Fe376       O387   2.052       .  S
Fe376       O392   2.107       .  S
Fe376       O386   1.948       .  S
Fe377       O395   2.098       .  S
Fe377       O382   2.048       .  S
Fe377       O389   2.052       .  S
Fe377       O378   2.101       .  S
Fe377       O386   1.954       .  S
O378        C385   1.275       .  A
O379        C393   1.263       .  A
O380        C385   1.267       .  A
O381        C384   1.271       .  A
O382        C394   1.269       .  A
O383        C396   1.274       .  A
C384        O389   1.268       .  A
C384       C1128   1.472       .  S
C385       C1915   1.471       .  S
O387        C390   1.268       .  A
O388        C390   1.271       .  A
C390       C1179   1.467       .  S
O391        C396   1.268       .  A
O392        C394   1.277       .  A
C393        O395   1.275       .  A
C393       C1115   1.467       .  S
C394       C2107   1.480       .  S
C396       C1144   1.472       .  S
Fe397       O413   2.087       .  S
Fe397       O403   2.041   1_545  S
Fe397       O410   2.052       .  S
Fe397       O402   2.087       .  S
Fe397       O408   1.945       .  S
Fe398       O401   2.090       .  S
Fe398       O405   2.051       .  S
Fe398       O409   2.077       .  S
Fe398       O414   2.038       .  S
Fe398       O408   1.947       .  S
Fe399       O417   2.046       .  S
Fe399       O404   2.111       .  S
Fe399       O411   2.109       .  S
Fe399       O400   2.056       .  S
Fe399       O408   1.947       .  S
O400        C407   1.268       .  A
O401        C415   1.274       .  A
O402        C407   1.272       .  A
O403        C406   1.269       .  A
O404        C416   1.277       .  A
O405        C418   1.269       .  A
C406        O411   1.278   1_565  A
C406       C1051   1.477       .  S
C407       C1627   1.472   1_545  S
O409        C412   1.271       .  A
O410        C412   1.269       .  A
C412       C2216   1.468       .  S
O413        C418   1.273       .  A
O414        C416   1.264       .  A
C415        O417   1.267       .  A
C415       C1096   1.471       .  S
C416       C1067   1.473       .  S
C418       C1083   1.471       .  S
Fe419       O435   2.104       .  S
Fe419       O425   2.037       .  S
Fe419       O432   2.057       .  S
Fe419       O424   2.103       .  S
Fe419       O430   1.944       .  S
Fe420       O423   2.087       .  S
Fe420       O427   2.034       .  S
Fe420       O431   2.077       .  S
Fe420       O436   2.032       .  S
Fe420       O430   1.943       .  S
Fe421       O439   2.054       .  S
Fe421       O426   2.105       .  S
Fe421       O433   2.103       .  S
Fe421       O422   2.060       .  S
Fe421       O430   1.955       .  S
O422        C429   1.269       .  A
O423        C437   1.274       .  A
O424        C429   1.277       .  A
O425        C428   1.268       .  A
O426        C438   1.276       .  A
O427        C440   1.264       .  A
C428        O433   1.275       .  A
C428       C1019   1.473   1_545  S
C429       C1931   1.481       .  S
O431        C434   1.271       .  A
O432        C434   1.269       .  A
C434       C2123   1.470       .  S
O435        C440   1.276       .  A
O436        C438   1.262       .  A
C437        O439   1.269       .  A
C437       C1035   1.473       .  S
C438       C1112   1.468       .  S
C440       C1080   1.469       .  S
Fe441       O457   2.048   1_455  S
Fe441       O447   2.098       .  S
Fe441       O454   2.088       .  S
Fe441       O446   2.035       .  S
Fe441       O452   1.945       .  S
Fe442       O445   2.031       .  S
Fe442       O449   2.090       .  S
Fe442       O453   2.052       .  S
Fe442       O458   2.100       .  S
Fe442       O452   1.950       .  S
Fe443       O461   2.098       .  S
Fe443       O448   2.049       .  S
Fe443       O455   2.057       .  S
Fe443       O444   2.103       .  S
Fe443       O452   1.954       .  S
O444        C451   1.276       .  A
O445        C459   1.264       .  A
O446        C451   1.266       .  A
O447        C450   1.274   1_455  A
O448        C460   1.268       .  A
O449        C462   1.274   1_455  A
C450        O455   1.268   1_655  A
C450        C987   1.480       .  S
C451       C1672   1.468       .  S
O453        C456   1.267       .  A
O454        C456   1.272       .  A
C456        C971   1.471       .  S
O457        C462   1.269       .  A
O458        C460   1.277       .  A
C459        O461   1.275       .  A
C459        C955   1.470       .  S
C460       C1864   1.477       .  S
C462       C1003   1.472       .  S
Fe463       O479   2.043       .  S
Fe463       O469   2.091       .  S
Fe463       O476   2.081       .  S
Fe463       O468   2.028       .  S
Fe463       O474   1.948       .  S
Fe464       O467   2.041       .  S
Fe464       O471   2.087       .  S
Fe464       O475   2.059       .  S
Fe464       O480   2.099       .  S
Fe464       O474   1.950       .  S
Fe465       O483   2.104       .  S
Fe465       O470   2.047       .  S
Fe465       O477   2.060       .  S
Fe465       O466   2.106       .  S
Fe465       O474   1.956       .  S
O466        C473   1.277       .  A
O467        C481   1.265       .  A
O468        C473   1.265       .  A
O469        C472   1.273       .  A
O470        C482   1.267       .  A
O471        C484   1.275       .  A
C472        O477   1.267       .  A
C472        C920   1.478       .  S
C473       C1608   1.466       .  S
O475        C478   1.269       .  A
O476        C478   1.271       .  A
C478        C968   1.474       .  S
O479        C484   1.268       .  A
O480        C482   1.275       .  A
C481        O483   1.277       .  A
C481       C1064   1.473       .  S
C482       C2200   1.478       .  S
C484        C936   1.468       .  S
Fe485       O501   2.076       .  S
Fe485       O491   2.036   1_545  S
Fe485       O498   2.056   1_655  S
Fe485       O490   2.070       .  S
Fe485       O496   1.956       .  S
Fe486       O489   2.073       .  S
Fe486       O493   2.055       .  S
Fe486       O497   2.072       .  S
Fe486       O502   2.043       .  S
Fe486       O496   1.961       .  S
Fe487       O505   2.061       .  S
Fe487       O492   2.082       .  S
Fe487       O499   2.093       .  S
Fe487       O488   2.067       .  S
Fe487       O496   1.970       .  S
O488        C495   1.269       .  A
O489        C503   1.272       .  A
O490        C495   1.269       .  A
O491        C494   1.267       .  A
O492        C504   1.272       .  A
O493        C506   1.267       .  A
C494        O499   1.273   1_565  A
C494        C875   1.471       .  S
C495       C1707   1.474   1_645  S
O497        C500   1.271   1_655  A
O498        C500   1.269       .  A
C500       C1880   1.470       .  S
O501        C506   1.268       .  A
O502        C504   1.265       .  A
C503        O505   1.271       .  A
C503        C904   1.473       .  S
C504        C952   1.470       .  S
C506        C888   1.471       .  S
Fe507       O523   2.091       .  S
Fe507       O513   2.051       .  S
Fe507       O520   2.072       .  S
Fe507       O512   2.077       .  S
Fe507       O518   1.964       .  S
Fe508       O511   2.066       .  S
Fe508       O515   2.044       .  S
Fe508       O519   2.067       .  S
Fe508       O524   2.039       .  S
Fe508       O518   1.964       .  S
Fe509       O527   2.065       .  S
Fe509       O514   2.074       .  S
Fe509       O521   2.077       .  S
Fe509       O510   2.067       .  S
Fe509       O518   1.972       .  S
O510        C517   1.269       .  A
O511        C525   1.269       .  A
O512        C517   1.271       .  A
O513        C516   1.271   1_545  A
O514        C526   1.270       .  A
O515        C528   1.265       .  A
C516        O521   1.272   1_565  A
C516        C840   1.469       .  S
C517       C2027   1.477   1_545  S
O519        C522   1.269       .  A
O520        C522   1.272       .  A
C522       C1784   1.476       .  S
O523        C528   1.271       .  A
O524        C526   1.265       .  A
C525        O527   1.271       .  A
C525        C856   1.473       .  S
C526       C1163   1.465       .  S
C528        C891   1.474       .  S
Fe529       O545   2.101       .  S
Fe529       O535   2.029       .  S
Fe529       O542   2.052   1_655  S
Fe529       O534   2.109       .  S
Fe529       O540   1.939       .  S
Fe530       O533   2.102       .  S
Fe530       O537   2.047       .  S
Fe530       O541   2.083       .  S
Fe530       O546   2.031       .  S
Fe530       O540   1.941       .  S
Fe531       O549   2.046       .  S
Fe531       O536   2.100       .  S
Fe531       O543   2.104       .  S
Fe531       O532   2.050       .  S
Fe531       O540   1.949       .  S
O532        C539   1.267       .  A
O533        C547   1.276       .  A
O534        C539   1.277       .  A
O535        C538   1.265       .  A
O536        C548   1.275       .  A
O537        C550   1.269       .  A
C538        O543   1.275       .  A
C538        C843   1.466       .  S
C539       C1592   1.477   1_655  S
O541        C544   1.272   1_655  A
O542        C544   1.268       .  A
C544       C1243   1.471       .  S
O545        C550   1.277       .  A
O546        C548   1.263       .  A
C547        O549   1.267       .  A
C547       C1195   1.476       .  S
C548        C811   1.461       .  S
C550        C824   1.473       .  S
Fe551       O567   2.089       .  S
Fe551       O557   2.030       .  S
Fe551       O564   2.056       .  S
Fe551       O556   2.095       .  S
Fe551       O562   1.947       .  S
Fe552       O555   2.091       .  S
Fe552       O559   2.055       .  S
Fe552       O563   2.081       .  S
Fe552       O568   2.040       .  S
Fe552       O562   1.947       .  S
Fe553       O571   2.058       .  S
Fe553       O558   2.093       .  S
Fe553       O565   2.105       .  S
Fe553       O554   2.061       .  S
Fe553       O562   1.957       .  S
O554        C561   1.268       .  A
O555        C569   1.275       .  A
O556        C561   1.273       .  A
O557        C560   1.266       .  A
O558        C570   1.274       .  A
O559        C572   1.269       .  A
C560        O565   1.276       .  A
C560        C872   1.466       .  S
C561       C1387   1.476       .  S
O563        C566   1.272       .  A
O564        C566   1.270       .  A
C566       C1291   1.472       .  S
O567        C572   1.273       .  A
O568        C570   1.264       .  A
C569        O571   1.270       .  A
C569        C984   1.478       .  S
C570        C795   1.466       .  S
C572        C827   1.475       .  S
Fe573       O589   2.056   1_455  S
Fe573       O579   2.089       .  S
Fe573       O586   2.098       .  S
Fe573       O578   2.043       .  S
Fe573       O584   1.939       .  S
Fe574       O577   2.035       .  S
Fe574       O581   2.082       .  S
Fe574       O585   2.048       .  S
Fe574       O590   2.097       .  S
Fe574       O584   1.945       .  S
Fe575       O593   2.098       .  S
Fe575       O580   2.049       .  S
Fe575       O587   2.051       .  S
Fe575       O576   2.099       .  S
Fe575       O584   1.952       .  S
O576        C583   1.275       .  A
O577        C591   1.263       .  A
O578        C583   1.269       .  A
O579        C582   1.275   1_455  A
O580        C592   1.267       .  A
O581        C594   1.271   1_455  A
C582        O587   1.268   1_655  A
C582        C859   1.472       .  S
C583       C1547   1.475       .  S
O585        C588   1.269       .  A
O586        C588   1.276       .  A
C588        C776   1.474       .  S
O589        C594   1.268       .  A
O590        C592   1.276       .  A
C591        O593   1.275       .  A
C591        C808   1.462       .  S
C592       C1227   1.475       .  S
C594       C1211   1.474       .  S
Fe595       O611   2.045       .  S
Fe595       O601   2.087       .  S
Fe595       O608   2.078       .  S
Fe595       O600   2.027       .  S
Fe595       O606   1.940       .  S
Fe596       O599   2.039       .  S
Fe596       O603   2.093       .  S
Fe596       O607   2.063       .  S
Fe596       O612   2.111       .  S
Fe596       O606   1.948       .  S
Fe597       O615   2.114       .  S
Fe597       O602   2.047       .  S
Fe597       O609   2.058       .  S
Fe597       O598   2.116       .  S
Fe597       O606   1.953       .  S
O598        C605   1.278       .  A
O599        C613   1.264       .  A
O600        C605   1.265       .  A
O601        C604   1.272       .  A
O602        C614   1.268       .  A
O603        C616   1.276       .  A
C604        O609   1.269       .  A
C604       C1032   1.474       .  S
C605       C1499   1.472       .  S
O607        C610   1.270       .  A
O608        C610   1.271       .  A
C610        C779   1.472       .  S
O611        C616   1.268       .  A
O612        C614   1.278       .  A
C613        O615   1.278       .  A
C613        C763   1.474       .  S
C614       C1467   1.481       .  S
C616       C1147   1.471       .  S
Fe617       O633   2.102       .  S
Fe617       O623   2.027       .  S
Fe617       O630   2.049       .  S
Fe617       O622   2.098       .  S
Fe617       O628   1.942       .  S
Fe618       O621   2.087       .  S
Fe618       O625   2.035       .  S
Fe618       O629   2.078       .  S
Fe618       O634   2.035       .  S
Fe618       O628   1.933       .  S
Fe619       O637   2.046       .  S
Fe619       O624   2.115       .  S
Fe619       O631   2.117       .  S
Fe619       O620   2.042       .  S
Fe619       O628   1.950       .  S
O620        C627   1.266       .  A
O621        C635   1.275       .  A
O622        C627   1.275       .  A
O623        C626   1.265       .  A
O624        C636   1.277       .  A
O625        C638   1.265       .  A
C626        O631   1.278       .  A
C626       C1016   1.473       .  S
C627       C1531   1.468       .  S
O629        C632   1.271       .  A
O630        C632   1.267       .  A
C632       C1480   1.468       .  S
O633        C638   1.275       .  A
O634        C636   1.262       .  A
C635        O637   1.268       .  A
C635       C1131   1.468       .  S
C636        C760   1.474       .  S
C638        C744   1.470       .  S
Fe639       O655   2.083       .  S
Fe639       O645   2.029       .  S
Fe639       O652   2.049       .  S
Fe639       O644   2.094       .  S
Fe639       O650   1.951       .  S
Fe640       O643   2.097       .  S
Fe640       O647   2.053       .  S
Fe640       O651   2.084       .  S
Fe640       O656   2.044       .  S
Fe640       O650   1.952       .  S
Fe641       O659   2.050       .  S
Fe641       O646   2.098       .  S
Fe641       O653   2.115       .  S
Fe641       O642   2.052       .  S
Fe641       O650   1.956       .  S
O642        C649   1.266       .  A
O643        C657   1.275       .  A
O644        C649   1.274       .  A
O645        C648   1.263       .  A
O646        C658   1.275       .  A
O647        C660   1.269       .  A
C648        O653   1.276       .  A
C648       C1048   1.472       .  S
C649       C1320   1.469       .  S
O651        C654   1.273       .  A
O652        C654   1.267       .  A
C654       C1432   1.471       .  S
O655        C660   1.272       .  A
O656        C658   1.265       .  A
C657        O659   1.269       .  A
C657        C923   1.477       .  S
C658        C731   1.472       .  S
C660        C747   1.471       .  S
Fe661       O677   2.056       .  S
Fe661       O667   2.082       .  S
Fe661       O674   2.078       .  S
Fe661       O666   2.040       .  S
Fe661       O672   1.947       .  S
Fe662       O665   2.039       .  S
Fe662       O669   2.078       .  S
Fe662       O673   2.044       .  S
Fe662       O678   2.094       .  S
Fe662       O672   1.949       .  S
Fe663       O681   2.091       .  S
Fe663       O668   2.052       .  S
Fe663       O675   2.056       .  S
Fe663       O664   2.094       .  S
Fe663       O672   1.955       .  S
O664        C671   1.274       .  A
O665        C679   1.263       .  A
O666        C671   1.267       .  A
O667        C670   1.272       .  A
O668        C680   1.269       .  A
O669        C682   1.272       .  A
C670        O675   1.269       .  A
C670        C907   1.472       .  S
C671       C1339   1.471       .  S
O673        C676   1.266       .  A
O674        C676   1.271       .  A
C676        C712   1.462       .  S
O677        C682   1.268       .  A
O678        C680   1.275       .  A
C679        O681   1.274       .  A
C679        C792   1.467       .  S
C680       C1275   1.477       .  S
C682       C1000   1.472       .  S
Fe683       O699   2.035       .  S
Fe683       O689   2.089       .  S
Fe683       O696   2.081       .  S
Fe683       O688   2.030       .  S
Fe683       O694   1.939       .  S
Fe684       O687   2.037       .  S
Fe684       O691   2.094       .  S
Fe684       O695   2.047       .  S
Fe684       O700   2.109       .  S
Fe684       O694   1.942       .  S
Fe685       O703   2.104       .  S
Fe685       O690   2.041       .  S
Fe685       O697   2.050       .  S
Fe685       O686   2.106       .  S
Fe685       O694   1.944       .  S
O686        C693   1.275       .  A
O687        C701   1.263       .  A
O688        C693   1.265       .  A
O689        C692   1.275       .  A
O690        C702   1.267       .  A
O691        C704   1.275       .  A
C692        O697   1.268       .  A
C692       C1099   1.469       .  S
C693       C1307   1.471       .  S
O695        C698   1.268       .  A
O696        C698   1.272       .  A
C698        C715   1.468       .  S
O699        C704   1.265       .  A
O700        C702   1.279       .  A
C701        O703   1.276       .  A
C701        C728   1.471       .  S
C702       C1416   1.476       .  S
C704        C939   1.469       .  S
C705        S711   1.703       .  A
C705        C710   1.388       .  A
C705        C706   1.397       .  A
C706        C707   1.399       .  A
C706        H717   1.083       .  S
C707        C716   1.365       .  A
C707        C708   1.387       .  A
C708        S714   1.707       .  A
C708        C709   1.401       .  A
C709        C710   1.402       .  A
C709        H718   1.083       .  S
C710        C713   1.369       .  A
S711        C712   1.719       .  A
C712        C713   1.384       .  A
C713        H719   1.083       .  S
S714        C715   1.723       .  A
C715        C716   1.384       .  A
C716        H720   1.083       .  S
C721        S727   1.703       .  A
C721        C726   1.387       .  A
C721        C722   1.401       .  A
C722        C723   1.401       .  A
C722        H733   1.083       .  S
C723        C732   1.372       .  A
C723        C724   1.387       .  A
C724        S730   1.704       .  A
C724        C725   1.402       .  A
C725        C726   1.401       .  A
C725        H734   1.083       .  S
C726        C729   1.372       .  A
S727        C728   1.725       .  A
C728        C729   1.386       .  A
C729        H735   1.083       .  S
S730        C731   1.725       .  A
C731        C732   1.386       .  A
C732        H736   1.083       .  S
C737        S743   1.699       .  A
C737        C742   1.388       .  A
C737        C738   1.397       .  A
C738        C739   1.397       .  A
C738        H749   1.084       .  S
C739        C748   1.367       .  A
C739        C740   1.387       .  A
C740        S746   1.711       .  A
C740        C741   1.406       .  A
C741        C742   1.406       .  A
C741        H750   1.083       .  S
C742        C745   1.377       .  A
S743        C744   1.721       .  A
C744        C745   1.388       .  A
C745        H751   1.083       .  S
S746        C747   1.725       .  A
C747        C748   1.383       .  A
C748        H752   1.084       .  S
C753        S759   1.702       .  A
C753        C758   1.387       .  A
C753        C754   1.402       .  A
C754        C755   1.401       .  A
C754        H765   1.083       .  S
C755        C764   1.375       .  A
C755        C756   1.387       .  A
C756        S762   1.704       .  A
C756        C757   1.404       .  A
C757        C758   1.403       .  A
C757        H766   1.083       .  S
C758        C761   1.376       .  A
S759        C760   1.726       .  A
C760        C761   1.387       .  A
C761        H767   1.083       .  S
S762        C763   1.728       .  A
C763        C764   1.386       .  A
C764        H768   1.083       .  S
C769        S775   1.705       .  A
C769        C774   1.387       .  A
C769        C770   1.402       .  A
C770        C771   1.402       .  A
C770        H781   1.083       .  S
C771        C780   1.373       .  A
C771        C772   1.387       .  A
C772        S778   1.707       .  A
C772        C773   1.404       .  A
C773        C774   1.404       .  A
C773        H782   1.083       .  S
C774        C777   1.374       .  A
S775        C776   1.724       .  A
C776        C777   1.388       .  A
C777        H783   1.083       .  S
S778        C779   1.724       .  A
C779        C780   1.386       .  A
C780        H784   1.083       .  S
C785        S791   1.703       .  A
C785        C790   1.387       .  A
C785        C786   1.401       .  A
C786        C787   1.401       .  A
C786        H797   1.083       .  S
C787        C796   1.370       .  A
C787        C788   1.387       .  A
C788        S794   1.701       .  A
C788        C789   1.399       .  A
C789        C790   1.399       .  A
C789        H798   1.083       .  S
C790        C793   1.368       .  A
S791        C792   1.725       .  A
C792        C793   1.384       .  A
C793        H799   1.083       .  S
S794        C795   1.723       .  A
C795        C796   1.386       .  A
C796        H800   1.083       .  S
C801        S807   1.702       .  A
C801        C806   1.388   1_655  A
C801        C802   1.401       .  A
C802        C803   1.401   1_554  A
C802        H813   1.083       .  S
C803        C812   1.370       .  A
C803        C804   1.388   1_655  A
C804        S810   1.699       .  A
C804        C805   1.398       .  A
C805        C806   1.398   1_556  A
C805        H814   1.083       .  S
C806        C809   1.367       .  A
S807        C808   1.724   1_655  A
C808        C809   1.382       .  A
C809        H815   1.084   1_554  S
S810        C811   1.722   1_455  A
C811        C812   1.384       .  A
C812        H816   1.084   1_556  S
C817        S823   1.704       .  A
C817        C822   1.387       .  A
C817        C818   1.401       .  A
C818        C819   1.401       .  A
C818        H829   1.083       .  S
C819        C828   1.371       .  A
C819        C820   1.387       .  A
C820        S826   1.711       .  A
C820        C821   1.405       .  A
C821        C822   1.406       .  A
C821        H830   1.083       .  S
C822        C825   1.376       .  A
S823        C824   1.722       .  A
C824        C825   1.388       .  A
C825        H831   1.083       .  S
S826        C827   1.725       .  A
C827        C828   1.386       .  A
C828        H832   1.083       .  S
C833        S839   1.711       .  A
C833        C838   1.386       .  A
C833        C834   1.406       .  A
C834        C835   1.407       .  A
C834        H845   1.083       .  S
C835        C844   1.375       .  A
C835        C836   1.388       .  A
C836        S842   1.693       .  A
C836        C837   1.393       .  A
C837        C838   1.393       .  A
C837        H846   1.083       .  S
C838        C841   1.362       .  A
S839        C840   1.728       .  A
C840        C841   1.382       .  A
C841        H847   1.083       .  S
S842        C843   1.720       .  A
C843        C844   1.388       .  A
C844        H848   1.083       .  S
C849        S855   1.708       .  A
C849        C854   1.386       .  A
C849        C850   1.404       .  A
C850        C851   1.404       .  A
C850        H861   1.083       .  S
C851        C860   1.372   1_556  A
C851        C852   1.387   1_556  A
C852        S858   1.704       .  A
C852        C853   1.398       .  A
C853        C854   1.400   1_554  A
C853        H862   1.083       .  S
C854        C857   1.368       .  A
S855        C856   1.727       .  A
C856        C857   1.386       .  A
C857        H863   1.083       .  S
S858        C859   1.721       .  A
C859        C860   1.390       .  A
C860        H864   1.083   1_554  S
C865        S871   1.692       .  A
C865        C870   1.388       .  A
C865        C866   1.390       .  A
C866        C867   1.392       .  A
C866        H877   1.083       .  S
C867        C876   1.358       .  A
C867        C868   1.385       .  A
C868        S874   1.717       .  A
C868        C869   1.408       .  A
C869        C870   1.410       .  A
C869        H878   1.082       .  S
C870        C873   1.377       .  A
S871        C872   1.718       .  A
C872        C873   1.390       .  A
C873        H879   1.082       .  S
S874        C875   1.728       .  A
C875        C876   1.382       .  A
C876        H880   1.083       .  S
C881        S887   1.712       .  A
C881        C886   1.387       .  A
C881        C882   1.407       .  A
C882        C883   1.407       .  A
C882        H893   1.083       .  S
C883        C892   1.377       .  A
C883        C884   1.387       .  A
C884        S890   1.700       .  A
C884        C885   1.398       .  A
C885        C886   1.398       .  A
C885        H894   1.084       .  S
C886        C889   1.368       .  A
S887        C888   1.725       .  A
C888        C889   1.383       .  A
C889        H895   1.084       .  S
S890        C891   1.722       .  A
C891        C892   1.390       .  A
C892        H896   1.083       .  S
C897        S903   1.707       .  A
C897        C902   1.386       .  A
C897        C898   1.402       .  A
C898        C899   1.403       .  A
C898        H909   1.083       .  S
C899        C908   1.370       .  A
C899        C900   1.387       .  A
C900        S906   1.705       .  A
C900        C901   1.400       .  A
C901        C902   1.401       .  A
C901        H910   1.083       .  S
C902        C905   1.369       .  A
S903        C904   1.725       .  A
C904        C905   1.387       .  A
C905        H911   1.083       .  S
S906        C907   1.723       .  A
C907        C908   1.387       .  A
C908        H912   1.083       .  S
C913        S919   1.707       .  A
C913        C918   1.386       .  A
C913        C914   1.400       .  A
C914        C915   1.401       .  A
C914        H925   1.083       .  S
C915        C924   1.368       .  A
C915        C916   1.386       .  A
C916        S922   1.714       .  A
C916        C917   1.406       .  A
C917        C918   1.407       .  A
C917        H926   1.083       .  S
C918        C921   1.375       .  A
S919        C920   1.723       .  A
C920        C921   1.391       .  A
C921        H927   1.083       .  S
S922        C923   1.727       .  A
C923        C924   1.388       .  A
C924        H928   1.083       .  S
C929        S935   1.704       .  A
C929        C934   1.387       .  A
C929        C930   1.400       .  A
C930        C931   1.401       .  A
C930        H941   1.083       .  S
C931        C940   1.370       .  A
C931        C932   1.387       .  A
C932        S938   1.701       .  A
C932        C933   1.399       .  A
C933        C934   1.400       .  A
C933        H942   1.083       .  S
C934        C937   1.368       .  A
S935        C936   1.723       .  A
C936        C937   1.385       .  A
C937        H943   1.083       .  S
S938        C939   1.724       .  A
C939        C940   1.385       .  A
C940        H944   1.083       .  S
C945        S951   1.708       .  A
C945        C950   1.386       .  A
C945        C946   1.398       .  A
C946        C947   1.402       .  A
C946        H957   1.084       .  S
C947        C956   1.363       .  A
C947        C948   1.386   1_655  A
C948        S954   1.711       .  A
C948        C949   1.399   1_455  A
C949        C950   1.403       .  A
C949        H958   1.083   1_655  S
C950        C953   1.365       .  A
S951        C952   1.722       .  A
C952        C953   1.388       .  A
C953        H959   1.084       .  S
S954        C955   1.722       .  A
C955        C956   1.388   1_455  A
C956        H960   1.084       .  S
C961        S967   1.709       .  A
C961        C966   1.387       .  A
C961        C962   1.404       .  A
C962        C963   1.405       .  A
C962        H973   1.083       .  S
C963        C972   1.374       .  A
C963        C964   1.387       .  A
C964        S970   1.705       .  A
C964        C965   1.401       .  A
C965        C966   1.401       .  A
C965        H974   1.083       .  S
C966        C969   1.371       .  A
S967        C968   1.725       .  A
C968        C969   1.386       .  A
C969        H975   1.083       .  S
S970        C971   1.722       .  A
C971        C972   1.388       .  A
C972        H976   1.083       .  S
C977        S983   1.710       .  A
C977        C982   1.386       .  A
C977        C978   1.404       .  A
C978        C979   1.405       .  A
C978        H989   1.083       .  S
C979        C988   1.373       .  A
C979        C980   1.386       .  A
C980        S986   1.710       .  A
C980        C981   1.404       .  A
C981        C982   1.405       .  A
C981        H990   1.083       .  S
C982        C985   1.373       .  A
S983        C984   1.725       .  A
C984        C985   1.390       .  A
C985        H991   1.083       .  S
S986        C987   1.725       .  A
C987        C988   1.390       .  A
C988        H992   1.083       .  S
C993        S999   1.709       .  A
C993        C998   1.387       .  A
C993        C994   1.403       .  A
C994        C995   1.404       .  A
C994       H1005   1.083       .  S
C995       C1004   1.372       .  A
C995        C996   1.387       .  A
C996       S1002   1.702       .  A
C996        C997   1.398       .  A
C997        C998   1.399       .  A
C997       H1006   1.083       .  S
C998       C1001   1.366       .  A
S999       C1000   1.725       .  A
C1000      C1001   1.385       .  A
C1001      H1007   1.083       .  S
S1002      C1003   1.722       .  A
C1003      C1004   1.389       .  A
C1004      H1008   1.083       .  S
C1009      S1015   1.692       .  A
C1009      C1014   1.387       .  A
C1009      C1010   1.392       .  A
C1010      C1011   1.393       .  A
C1010      H1021   1.083       .  S
C1011      C1020   1.360       .  A
C1011      C1012   1.386       .  A
C1012      S1018   1.717       .  A
C1012      C1013   1.409       .  A
C1013      C1014   1.410       .  A
C1013      H1022   1.082       .  S
C1014      C1017   1.379       .  A
S1015      C1016   1.722       .  A
C1016      C1017   1.391       .  A
C1017      H1023   1.082       .  S
S1018      C1019   1.728       .  A
C1019      C1020   1.383       .  A
C1020      H1024   1.083       .  S
C1025      S1031   1.706       .  A
C1025      C1030   1.387       .  A
C1025      C1026   1.401       .  A
C1026      C1027   1.402       .  A
C1026      H1037   1.083       .  S
C1027      C1036   1.369       .  A
C1027      C1028   1.387       .  A
C1028      S1034   1.708       .  A
C1028      C1029   1.402       .  A
C1029      C1030   1.403       .  A
C1029      H1038   1.083       .  S
C1030      C1033   1.372       .  A
S1031      C1032   1.724       .  A
C1032      C1033   1.388       .  A
C1033      H1039   1.083       .  S
S1034      C1035   1.725       .  A
C1035      C1036   1.387       .  A
C1036      H1040   1.083       .  S
C1041      S1047   1.696       .  A
C1041      C1046   1.387       .  A
C1041      C1042   1.395       .  A
C1042      C1043   1.396       .  A
C1042      H1053   1.082       .  S
C1043      C1052   1.364       .  A
C1043      C1044   1.385       .  A
C1044      S1050   1.717       .  A
C1044      C1045   1.409       .  A
C1045      C1046   1.410       .  A
C1045      H1054   1.081       .  S
C1046      C1049   1.380       .  A
S1047      C1048   1.722       .  A
C1048      C1049   1.391       .  A
C1049      H1055   1.082       .  S
S1050      C1051   1.728       .  A
C1051      C1052   1.385       .  A
C1052      H1056   1.083       .  S
C1057      S1063   1.703       .  A
C1057      C1062   1.387       .  A
C1057      C1058   1.402       .  A
C1058      C1059   1.402       .  A
C1058      H1069   1.083       .  S
C1059      C1068   1.374       .  A
C1059      C1060   1.387       .  A
C1060      S1066   1.704       .  A
C1060      C1061   1.403       .  A
C1061      C1062   1.402       .  A
C1061      H1070   1.083       .  S
C1062      C1065   1.374       .  A
S1063      C1064   1.726       .  A
C1064      C1065   1.387       .  A
C1065      H1071   1.083       .  S
S1066      C1067   1.726       .  A
C1067      C1068   1.386       .  A
C1068      H1072   1.083       .  S
C1073      S1079   1.699       .  A
C1073      C1078   1.388       .  A
C1073      C1074   1.398       .  A
C1074      C1075   1.398       .  A
C1074      H1085   1.083       .  S
C1075      C1084   1.368       .  A
C1075      C1076   1.387       .  A
C1076      S1082   1.710       .  A
C1076      C1077   1.406       .  A
C1077      C1078   1.405       .  A
C1077      H1086   1.083       .  S
C1078      C1081   1.377       .  A
S1079      C1080   1.721       .  A
C1080      C1081   1.387       .  A
C1081      H1087   1.083       .  S
S1082      C1083   1.725       .  A
C1083      C1084   1.384       .  A
C1084      H1088   1.083       .  S
C1089      S1095   1.703       .  A
C1089      C1094   1.387       .  A
C1089      C1090   1.400       .  A
C1090      C1091   1.401       .  A
C1090      H1101   1.083       .  S
C1091      C1100   1.368       .  A
C1091      C1092   1.387       .  A
C1092      S1098   1.706       .  A
C1092      C1093   1.401       .  A
C1093      C1094   1.402       .  A
C1093      H1102   1.083       .  S
C1094      C1097   1.370       .  A
S1095      C1096   1.724       .  A
C1096      C1097   1.387       .  A
C1097      H1103   1.083       .  S
S1098      C1099   1.723       .  A
C1099      C1100   1.386       .  A
C1100      H1104   1.083       .  S
C1105      S1111   1.702       .  A
C1105      C1110   1.387       .  A
C1105      C1106   1.401       .  A
C1106      C1107   1.401       .  A
C1106      H1117   1.084       .  S
C1107      C1116   1.372       .  A
C1107      C1108   1.387       .  A
C1108      S1114   1.701       .  A
C1108      C1109   1.401       .  A
C1109      C1110   1.400       .  A
C1109      H1118   1.084       .  S
C1110      C1113   1.372       .  A
S1111      C1112   1.725       .  A
C1112      C1113   1.385       .  A
C1113      H1119   1.084       .  S
S1114      C1115   1.725       .  A
C1115      C1116   1.385       .  A
C1116      H1120   1.084       .  S
C1121      S1127   1.709       .  A
C1121      C1126   1.387       .  A
C1121      C1122   1.402       .  A
C1122      C1123   1.404       .  A
C1122      H1133   1.084       .  S
C1123      C1132   1.369       .  A
C1123      C1124   1.387       .  A
C1124      S1130   1.705       .  A
C1124      C1125   1.398       .  A
C1125      C1126   1.400       .  A
C1125      H1134   1.083       .  S
C1126      C1129   1.367       .  A
S1127      C1128   1.725       .  A
C1128      C1129   1.385       .  A
C1129      H1135   1.083       .  S
S1130      C1131   1.721       .  A
C1131      C1132   1.388       .  A
C1132      H1136   1.084       .  S
C1137      S1143   1.705       .  A
C1137      C1142   1.387       .  A
C1137      C1138   1.401       .  A
C1138      C1139   1.402       .  A
C1138      H1149   1.083       .  S
C1139      C1148   1.370       .  A
C1139      C1140   1.387       .  A
C1140      S1146   1.705       .  A
C1140      C1141   1.401       .  A
C1141      C1142   1.401       .  A
C1141      H1150   1.083       .  S
C1142      C1145   1.370       .  A
S1143      C1144   1.724       .  A
C1144      C1145   1.387       .  A
C1145      H1151   1.083       .  S
S1146      C1147   1.724       .  A
C1147      C1148   1.386       .  A
C1148      H1152   1.083       .  S
C1153      S1159   1.704       .  A
C1153      C1158   1.387       .  A
C1153      C1154   1.396   1_554  A
C1154      C1155   1.399       .  A
C1154      H1165   1.084       .  S
C1155      C1164   1.362       .  A
C1155      C1156   1.387   1_556  A
C1156      S1162   1.707       .  A
C1156      C1157   1.399       .  A
C1157      C1158   1.401       .  A
C1157      H1166   1.084       .  S
C1158      C1161   1.365       .  A
S1159      C1160   1.720       .  A
C1160      C1161   1.387       .  A
C1161      H1167   1.084       .  S
S1162      C1163   1.722   1_554  A
C1163      C1164   1.385       .  A
C1164      H1168   1.084       .  S
C1169      S1175   1.711       .  A
C1169      C1174   1.387       .  A
C1169      C1170   1.404       .  A
C1170      C1171   1.405       .  A
C1170      H1181   1.083       .  S
C1171      C1180   1.372       .  A
C1171      C1172   1.387       .  A
C1172      S1178   1.704       .  A
C1172      C1173   1.398       .  A
C1173      C1174   1.400       .  A
C1173      H1182   1.083       .  S
C1174      C1177   1.367       .  A
S1175      C1176   1.725       .  A
C1176      C1177   1.385       .  A
C1177      H1183   1.083       .  S
S1178      C1179   1.720       .  A
C1179      C1180   1.387       .  A
C1180      H1184   1.083       .  S
C1185      S1191   1.708       .  A
C1185      C1190   1.387       .  A
C1185      C1186   1.404   1_554  A
C1186      C1187   1.404       .  A
C1186      H1197   1.083       .  S
C1187      C1196   1.375       .  A
C1187      C1188   1.386       .  A
C1188      S1194   1.704       .  A
C1188      C1189   1.401   1_556  A
C1189      C1190   1.401       .  A
C1189      H1198   1.083       .  S
C1190      C1193   1.371       .  A
S1191      C1192   1.725       .  A
C1192      C1193   1.386       .  A
C1193      H1199   1.083       .  S
S1194      C1195   1.725       .  A
C1195      C1196   1.389       .  A
C1196      H1200   1.083       .  S
C1201      S1207   1.707       .  A
C1201      C1206   1.387       .  A
C1201      C1202   1.402       .  A
C1202      C1203   1.403       .  A
C1202      H1213   1.083       .  S
C1203      C1212   1.371       .  A
C1203      C1204   1.387       .  A
C1204      S1210   1.706       .  A
C1204      C1205   1.401       .  A
C1205      C1206   1.402       .  A
C1205      H1214   1.083       .  S
C1206      C1209   1.370       .  A
S1207      C1208   1.724       .  A
C1208      C1209   1.387       .  A
C1209      H1215   1.083       .  S
S1210      C1211   1.724       .  A
C1211      C1212   1.388       .  A
C1212      H1216   1.083       .  S
C1217      S1223   1.706   1_554  A
C1217      C1222   1.387   1_554  A
C1217      C1218   1.402       .  A
C1218      C1219   1.402       .  A
C1218      H1229   1.083       .  S
C1219      C1228   1.372       .  A
C1219      C1220   1.387       .  A
C1220      S1226   1.706       .  A
C1220      C1221   1.402   1_554  A
C1221      C1222   1.403       .  A
C1221      H1230   1.083       .  S
C1222      C1225   1.372       .  A
S1223      C1224   1.723       .  A
C1224      C1225   1.386       .  A
C1225      H1231   1.083       .  S
S1226      C1227   1.726       .  A
C1227      C1228   1.388       .  A
C1228      H1232   1.083       .  S
C1233      S1239   1.706       .  A
C1233      C1238   1.387       .  A
C1233      C1234   1.401       .  A
C1234      C1235   1.402       .  A
C1234      H1245   1.083       .  S
C1235      C1244   1.370       .  A
C1235      C1236   1.387       .  A
C1236      S1242   1.706       .  A
C1236      C1237   1.401       .  A
C1237      C1238   1.402       .  A
C1237      H1246   1.083       .  S
C1238      C1241   1.370       .  A
S1239      C1240   1.723       .  A
C1240      C1241   1.387       .  A
C1241      H1247   1.083       .  S
S1242      C1243   1.723       .  A
C1243      C1244   1.387       .  A
C1244      H1248   1.083       .  S
C1249      S1255   1.707       .  A
C1249      C1254   1.387       .  A
C1249      C1250   1.402       .  A
C1250      C1251   1.402       .  A
C1250      H1261   1.083       .  S
C1251      C1260   1.372       .  A
C1251      C1252   1.388       .  A
C1252      S1258   1.705       .  A
C1252      C1253   1.402       .  A
C1253      C1254   1.402       .  A
C1253      H1262   1.084       .  S
C1254      C1257   1.371       .  A
S1255      C1256   1.723       .  A
C1256      C1257   1.387       .  A
C1257      H1263   1.084       .  S
S1258      C1259   1.723       .  A
C1259      C1260   1.384       .  A
C1260      H1264   1.083       .  S
C1265      S1271   1.706       .  A
C1265      C1270   1.387       .  A
C1265      C1266   1.401       .  A
C1266      C1267   1.402       .  A
C1266      H1277   1.083       .  S
C1267      C1276   1.369       .  A
C1267      C1268   1.386       .  A
C1268      S1274   1.712       .  A
C1268      C1269   1.405       .  A
C1269      C1270   1.406       .  A
C1269      H1278   1.083       .  S
C1270      C1273   1.374       .  A
S1271      C1272   1.723       .  A
C1272      C1273   1.389       .  A
C1273      H1279   1.083       .  S
S1274      C1275   1.726       .  A
C1275      C1276   1.388       .  A
C1276      H1280   1.083       .  S
C1281      S1287   1.704       .  A
C1281      C1286   1.387       .  A
C1281      C1282   1.401       .  A
C1282      C1283   1.402       .  A
C1282      H1293   1.083       .  S
C1283      C1292   1.371       .  A
C1283      C1284   1.387       .  A
C1284      S1290   1.704       .  A
C1284      C1285   1.400       .  A
C1285      C1286   1.401       .  A
C1285      H1294   1.083       .  S
C1286      C1289   1.370       .  A
S1287      C1288   1.724       .  A
C1288      C1289   1.385       .  A
C1289      H1295   1.083       .  S
S1290      C1291   1.723       .  A
C1291      C1292   1.387       .  A
C1292      H1296   1.083       .  S
C1297      S1303   1.697       .  A
C1297      C1302   1.388       .  A
C1297      C1298   1.393       .  A
C1298      C1299   1.395       .  A
C1298      H1309   1.083       .  S
C1299      C1308   1.359       .  A
C1299      C1300   1.386       .  A
C1300      S1306   1.717       .  A
C1300      C1301   1.407       .  A
C1301      C1302   1.408       .  A
C1301      H1310   1.083       .  S
C1302      C1305   1.375       .  A
S1303      C1304   1.720       .  A
C1304      C1305   1.389       .  A
C1305      H1311   1.083       .  S
S1306      C1307   1.726       .  A
C1307      C1308   1.384       .  A
C1308      H1312   1.084       .  S
C1313      S1319   1.710       .  A
C1313      C1318   1.387       .  A
C1313      C1314   1.406       .  A
C1314      C1315   1.406       .  A
C1314      H1325   1.083       .  S
C1315      C1324   1.376       .  A
C1315      C1316   1.387       .  A
C1316      S1322   1.700       .  A
C1316      C1317   1.399       .  A
C1317      C1318   1.399       .  A
C1317      H1326   1.083       .  S
C1318      C1321   1.369       .  A
S1319      C1320   1.725       .  A
C1320      C1321   1.383       .  A
C1321      H1327   1.083       .  S
S1322      C1323   1.723       .  A
C1323      C1324   1.390       .  A
C1324      H1328   1.083       .  S
C1329      S1335   1.695       .  A
C1329      C1334   1.387       .  A
C1329      C1330   1.394       .  A
C1330      C1331   1.395       .  A
C1330      H1341   1.083       .  S
C1331      C1340   1.361       .  A
C1331      C1332   1.386       .  A
C1332      S1338   1.713       .  A
C1332      C1333   1.407       .  A
C1333      C1334   1.407       .  A
C1333      H1342   1.083       .  S
C1334      C1337   1.376       .  A
S1335      C1336   1.722       .  A
C1336      C1337   1.389       .  A
C1337      H1343   1.083       .  S
S1338      C1339   1.726       .  A
C1339      C1340   1.384       .  A
C1340      H1344   1.084       .  S
C1345      S1351   1.711       .  A
C1345      C1350   1.386       .  A
C1345      C1346   1.401       .  A
C1346      C1347   1.404       .  A
C1346      H1357   1.083       .  S
C1347      C1356   1.367       .  A
C1347      C1348   1.386       .  A
C1348      S1354   1.709       .  A
C1348      C1349   1.400       .  A
C1349      C1350   1.402       .  A
C1349      H1358   1.083       .  S
C1350      C1353   1.365       .  A
S1351      C1352   1.722       .  A
C1352      C1353   1.389       .  A
C1353      H1359   1.084       .  S
S1354      C1355   1.723       .  A
C1355      C1356   1.389       .  A
C1356      H1360   1.083       .  S
C1361      S1367   1.705       .  A
C1361      C1366   1.387       .  A
C1361      C1362   1.401       .  A
C1362      C1363   1.401       .  A
C1362      H1373   1.083       .  S
C1363      C1372   1.371       .  A
C1363      C1364   1.387       .  A
C1364      S1370   1.706       .  A
C1364      C1365   1.402       .  A
C1365      C1366   1.403       .  A
C1365      H1374   1.083       .  S
C1366      C1369   1.372       .  A
S1367      C1368   1.722       .  A
C1368      C1369   1.386       .  A
C1369      H1375   1.083       .  S
S1370      C1371   1.725       .  A
C1371      C1372   1.385       .  A
C1372      H1376   1.083       .  S
C1377      S1383   1.709       .  A
C1377      C1382   1.386       .  A
C1377      C1378   1.404       .  A
C1378      C1379   1.405       .  A
C1378      H1389   1.083       .  S
C1379      C1388   1.374       .  A
C1379      C1380   1.387       .  A
C1380      S1386   1.709       .  A
C1380      C1381   1.403       .  A
C1381      C1382   1.404       .  A
C1381      H1390   1.083       .  S
C1382      C1385   1.373       .  A
S1383      C1384   1.727       .  A
C1384      C1385   1.389       .  A
C1385      H1391   1.083       .  S
S1386      C1387   1.724       .  A
C1387      C1388   1.389       .  A
C1388      H1392   1.083       .  S
C1393      S1399   1.703       .  A
C1393      C1398   1.387       .  A
C1393      C1394   1.402       .  A
C1394      C1395   1.401       .  A
C1394      H1405   1.083       .  S
C1395      C1404   1.373       .  A
C1395      C1396   1.387       .  A
C1396      S1402   1.707       .  A
C1396      C1397   1.405       .  A
C1397      C1398   1.405       .  A
C1397      H1406   1.083       .  S
C1398      C1401   1.377       .  A
S1399      C1400   1.725       .  A
C1400      C1401   1.390       .  A
C1401      H1407   1.083       .  S
S1402      C1403   1.728       .  A
C1403      C1404   1.386       .  A
C1404      H1408   1.083       .  S
C1409      S1415   1.703       .  A
C1409      C1414   1.387       .  A
C1409      C1410   1.402       .  A
C1410      C1411   1.402       .  A
C1410      H1421   1.083       .  S
C1411      C1420   1.373       .  A
C1411      C1412   1.387       .  A
C1412      S1418   1.708       .  A
C1412      C1413   1.405       .  A
C1413      C1414   1.404       .  A
C1413      H1422   1.083       .  S
C1414      C1417   1.376       .  A
S1415      C1416   1.726       .  A
C1416      C1417   1.389       .  A
C1417      H1423   1.083       .  S
S1418      C1419   1.726       .  A
C1419      C1420   1.387       .  A
C1420      H1424   1.083       .  S
C1425      S1431   1.706       .  A
C1425      C1430   1.387       .  A
C1425      C1426   1.401       .  A
C1426      C1427   1.402       .  A
C1426      H1437   1.083       .  S
C1427      C1436   1.369       .  A
C1427      C1428   1.387       .  A
C1428      S1434   1.704       .  A
C1428      C1429   1.400       .  A
C1429      C1430   1.401       .  A
C1429      H1438   1.082       .  S
C1430      C1433   1.369       .  A
S1431      C1432   1.724       .  A
C1432      C1433   1.386       .  A
C1433      H1439   1.083       .  S
S1434      C1435   1.723       .  A
C1435      C1436   1.387       .  A
C1436      H1440   1.083       .  S
C1441      S1447   1.704       .  A
C1441      C1446   1.387       .  A
C1441      C1442   1.401       .  A
C1442      C1443   1.401       .  A
C1442      H1453   1.083       .  S
C1443      C1452   1.373       .  A
C1443      C1444   1.386       .  A
C1444      S1450   1.715       .  A
C1444      C1445   1.409       .  A
C1445      C1446   1.409       .  A
C1445      H1454   1.083       .  S
C1446      C1449   1.381       .  A
S1447      C1448   1.724       .  A
C1448      C1449   1.391       .  A
C1449      H1455   1.083       .  S
S1450      C1451   1.727       .  A
C1451      C1452   1.386       .  A
C1452      H1456   1.083       .  S
C1457      S1463   1.709       .  A
C1457      C1462   1.386       .  A
C1457      C1458   1.406       .  A
C1458      C1459   1.405       .  A
C1458      H1469   1.083       .  S
C1459      C1468   1.378       .  A
C1459      C1460   1.386       .  A
C1460      S1466   1.705       .  A
C1460      C1461   1.404       .  A
C1461      C1462   1.404       .  A
C1461      H1470   1.083       .  S
C1462      C1465   1.376       .  A
S1463      C1464   1.727       .  A
C1464      C1465   1.388       .  A
C1465      H1471   1.083       .  S
S1466      C1467   1.727       .  A
C1467      C1468   1.390       .  A
C1468      H1472   1.083       .  S
C1473      S1479   1.702       .  A
C1473      C1478   1.387       .  A
C1473      C1474   1.397       .  A
C1474      C1475   1.399       .  A
C1474      H1485   1.082       .  S
C1475      C1484   1.365       .  A
C1475      C1476   1.387       .  A
C1476      S1482   1.706       .  A
C1476      C1477   1.401       .  A
C1477      C1478   1.402       .  A
C1477      H1486   1.082       .  S
C1478      C1481   1.369       .  A
S1479      C1480   1.721       .  A
C1480      C1481   1.387       .  A
C1481      H1487   1.083       .  S
S1482      C1483   1.723       .  A
C1483      C1484   1.384       .  A
C1484      H1488   1.083       .  S
C1489      S1495   1.716       .  A
C1489      C1494   1.385       .  A
C1489      C1490   1.409       .  A
C1490      C1491   1.410       .  A
C1490      H1501   1.082       .  S
C1491      C1500   1.380       .  A
C1491      C1492   1.387       .  A
C1492      S1498   1.692       .  A
C1492      C1493   1.393       .  A
C1493      C1494   1.393       .  A
C1493      H1502   1.083       .  S
C1494      C1497   1.361       .  A
S1495      C1496   1.728       .  A
C1496      C1497   1.383       .  A
C1497      H1503   1.083       .  S
S1498      C1499   1.722       .  A
C1499      C1500   1.391       .  A
C1500      H1504   1.082       .  S
C1505      S1511   1.701   1_655  A
C1505      C1510   1.387       .  A
C1505      C1506   1.401   1_655  A
C1506      C1507   1.400       .  A
C1506      H1517   1.083       .  S
C1507      C1516   1.372       .  A
C1507      C1508   1.387   1_455  A
C1508      S1514   1.703       .  A
C1508      C1509   1.403       .  A
C1509      C1510   1.402       .  A
C1509      H1518   1.083       .  S
C1510      C1513   1.374       .  A
S1511      C1512   1.725   1_455  A
C1512      C1513   1.386       .  A
C1513      H1519   1.083       .  S
S1514      C1515   1.726   1_655  A
C1515      C1516   1.385       .  A
C1516      H1520   1.083       .  S
C1521      S1527   1.704       .  A
C1521      C1526   1.387       .  A
C1521      C1522   1.401       .  A
C1522      C1523   1.402       .  A
C1522      H1533   1.083       .  S
C1523      C1532   1.371       .  A
C1523      C1524   1.387       .  A
C1524      S1530   1.702       .  A
C1524      C1525   1.399       .  A
C1525      C1526   1.400       .  A
C1525      H1534   1.083       .  S
C1526      C1529   1.369       .  A
S1527      C1528   1.725       .  A
C1528      C1529   1.386       .  A
C1529      H1535   1.083       .  S
S1530      C1531   1.723       .  A
C1531      C1532   1.386       .  A
C1532      H1536   1.083       .  S
C1537      S1543   1.696       .  A
C1537      C1542   1.387       .  A
C1537      C1538   1.395       .  A
C1538      C1539   1.395       .  A
C1538      H1549   1.083       .  S
C1539      C1548   1.363       .  A
C1539      C1540   1.386       .  A
C1540      S1546   1.716       .  A
C1540      C1541   1.408       .  A
C1541      C1542   1.409       .  A
C1541      H1550   1.083       .  S
C1542      C1545   1.378       .  A
S1543      C1544   1.722       .  A
C1544      C1545   1.391       .  A
C1545      H1551   1.083       .  S
S1546      C1547   1.728       .  A
C1547      C1548   1.384       .  A
C1548      H1552   1.083       .  S
C1553      S1559   1.701       .  A
C1553      C1558   1.387       .  A
C1553      C1554   1.403       .  A
C1554      C1555   1.401   1_554  A
C1554      H1565   1.080       .  S
C1555      C1564   1.373       .  A
C1555      C1556   1.387       .  A
C1556      S1562   1.697       .  A
C1556      C1557   1.399       .  A
C1557      C1558   1.398   1_556  A
C1557      H1566   1.080       .  S
C1558      C1561   1.370       .  A
S1559      C1560   1.726       .  A
C1560      C1561   1.383       .  A
C1561      H1567   1.082   1_554  S
S1562      C1563   1.725       .  A
C1563      C1564   1.386       .  A
C1564      H1568   1.082   1_556  S
C1569      S1575   1.708       .  A
C1569      C1574   1.387       .  A
C1569      C1570   1.403       .  A
C1570      C1571   1.404       .  A
C1570      H1581   1.083       .  S
C1571      C1580   1.372       .  A
C1571      C1572   1.387       .  A
C1572      S1578   1.709       .  A
C1572      C1573   1.403       .  A
C1573      C1574   1.403       .  A
C1573      H1582   1.083       .  S
C1574      C1577   1.373       .  A
S1575      C1576   1.724       .  A
C1576      C1577   1.387       .  A
C1577      H1583   1.083       .  S
S1578      C1579   1.723       .  A
C1579      C1580   1.387       .  A
C1580      H1584   1.083       .  S
C1585      S1591   1.707   1_554  A
C1585      C1590   1.387   1_554  A
C1585      C1586   1.403       .  A
C1586      C1587   1.404       .  A
C1586      H1597   1.083       .  S
C1587      C1596   1.373       .  A
C1587      C1588   1.386       .  A
C1588      S1594   1.709       .  A
C1588      C1589   1.405   1_554  A
C1589      C1590   1.405       .  A
C1589      H1598   1.083       .  S
C1590      C1593   1.376       .  A
S1591      C1592   1.726       .  A
C1592      C1593   1.388       .  A
C1593      H1599   1.083       .  S
S1594      C1595   1.726       .  A
C1595      C1596   1.389       .  A
C1596      H1600   1.083       .  S
C1601      S1607   1.697       .  A
C1601      C1606   1.388       .  A
C1601      C1602   1.396       .  A
C1602      C1603   1.397       .  A
C1602      H1613   1.084       .  S
C1603      C1612   1.363       .  A
C1603      C1604   1.386       .  A
C1604      S1610   1.712       .  A
C1604      C1605   1.404       .  A
C1605      C1606   1.405       .  A
C1605      H1614   1.083       .  S
C1606      C1609   1.374       .  A
S1607      C1608   1.722       .  A
C1608      C1609   1.386       .  A
C1609      H1615   1.083       .  S
S1610      C1611   1.724       .  A
C1611      C1612   1.386       .  A
C1612      H1616   1.084       .  S
C1617      S1623   1.707       .  A
C1617      C1622   1.386       .  A
C1617      C1618   1.403       .  A
C1618      C1619   1.404       .  A
C1618      H1629   1.083       .  S
C1619      C1628   1.372       .  A
C1619      C1620   1.387       .  A
C1620      S1626   1.706   1_565  A
C1620      C1621   1.401       .  A
C1621      C1622   1.401       .  A
C1621      H1630   1.083       .  S
C1622      C1625   1.371       .  A
S1623      C1624   1.727       .  A
C1624      C1625   1.387       .  A
C1625      H1631   1.083       .  S
S1626      C1627   1.722   1_545  A
C1627      C1628   1.388       .  A
C1628      H1632   1.083       .  S
C1633      S1639   1.704       .  A
C1633      C1638   1.387       .  A
C1633      C1634   1.400       .  A
C1634      C1635   1.401       .  A
C1634      H1645   1.083       .  S
C1635      C1644   1.370       .  A
C1635      C1636   1.387       .  A
C1636      S1642   1.700       .  A
C1636      C1637   1.398       .  A
C1637      C1638   1.398       .  A
C1637      H1646   1.083       .  S
C1638      C1641   1.366       .  A
S1639      C1640   1.722       .  A
C1640      C1641   1.383       .  A
C1641      H1647   1.083       .  S
S1642      C1643   1.724       .  A
C1643      C1644   1.386       .  A
C1644      H1648   1.083       .  S
C1649      S1655   1.707       .  A
C1649      C1654   1.387       .  A
C1649      C1650   1.403       .  A
C1650      C1651   1.404       .  A
C1650      H1661   1.082       .  S
C1651      C1660   1.372       .  A
C1651      C1652   1.387       .  A
C1652      S1658   1.701       .  A
C1652      C1653   1.398       .  A
C1653      C1654   1.398       .  A
C1653      H1662   1.082       .  S
C1654      C1657   1.367       .  A
S1655      C1656   1.726       .  A
C1656      C1657   1.384       .  A
C1657      H1663   1.083       .  S
S1658      C1659   1.721       .  A
C1659      C1660   1.388       .  A
C1660      H1664   1.083       .  S
C1665      S1671   1.698       .  A
C1665      C1670   1.388       .  A
C1665      C1666   1.396       .  A
C1666      C1667   1.397       .  A
C1666      H1677   1.084       .  S
C1667      C1676   1.364       .  A
C1667      C1668   1.386       .  A
C1668      S1674   1.713       .  A
C1668      C1669   1.405       .  A
C1669      C1670   1.406       .  A
C1669      H1678   1.083       .  S
C1670      C1673   1.374       .  A
S1671      C1672   1.721       .  A
C1672      C1673   1.388       .  A
C1673      H1679   1.083       .  S
S1674      C1675   1.726       .  A
C1675      C1676   1.386       .  A
C1676      H1680   1.084       .  S
C1681      S1687   1.707       .  A
C1681      C1686   1.388       .  A
C1681      C1682   1.401       .  A
C1682      C1683   1.402       .  A
C1682      H1693   1.083       .  S
C1683      C1692   1.368       .  A
C1683      C1684   1.388       .  A
C1684      S1690   1.700       .  A
C1684      C1685   1.396       .  A
C1685      C1686   1.397       .  A
C1685      H1694   1.083       .  S
C1686      C1689   1.363       .  A
S1687      C1688   1.722       .  A
C1688      C1689   1.381       .  A
C1689      H1695   1.083       .  S
S1690      C1691   1.720       .  A
C1691      C1692   1.385       .  A
C1692      H1696   1.083       .  S
C1697      S1703   1.710       .  A
C1697      C1702   1.386       .  A
C1697      C1698   1.405       .  A
C1698      C1699   1.405       .  A
C1698      H1709   1.083       .  S
C1699      C1708   1.375   1_565  A
C1699      C1700   1.387       .  A
C1700      S1706   1.702       .  A
C1700      C1701   1.399       .  A
C1701      C1702   1.399       .  A
C1701      H1710   1.083       .  S
C1702      C1705   1.368       .  A
S1703      C1704   1.726       .  A
C1704      C1705   1.386       .  A
C1705      H1711   1.083       .  S
S1706      C1707   1.723       .  A
C1707      C1708   1.389   1_565  A
C1708      H1712   1.083       .  S
C1713      S1719   1.702       .  A
C1713      C1718   1.387       .  A
C1713      C1714   1.400       .  A
C1714      C1715   1.400       .  A
C1714      H1725   1.083       .  S
C1715      C1724   1.370       .  A
C1715      C1716   1.387       .  A
C1716      S1722   1.704       .  A
C1716      C1717   1.401       .  A
C1717      C1718   1.401       .  A
C1717      H1726   1.083       .  S
C1718      C1721   1.371       .  A
S1719      C1720   1.724       .  A
C1720      C1721   1.386       .  A
C1721      H1727   1.083       .  S
S1722      C1723   1.725       .  A
C1723      C1724   1.386       .  A
C1724      H1728   1.083       .  S
C1729      S1735   1.702       .  A
C1729      C1734   1.387       .  A
C1729      C1730   1.399       .  A
C1730      C1731   1.400       .  A
C1730      H1741   1.083       .  S
C1731      C1740   1.368       .  A
C1731      C1732   1.387       .  A
C1732      S1738   1.705       .  A
C1732      C1733   1.401       .  A
C1733      C1734   1.402       .  A
C1733      H1742   1.083       .  S
C1734      C1737   1.370       .  A
S1735      C1736   1.723       .  A
C1736      C1737   1.386       .  A
C1737      H1743   1.083       .  S
S1738      C1739   1.724       .  A
C1739      C1740   1.386       .  A
C1740      H1744   1.083       .  S
C1745      S1751   1.696       .  A
C1745      C1750   1.387       .  A
C1745      C1746   1.396       .  A
C1746      C1747   1.396       .  A
C1746      H1757   1.082       .  S
C1747      C1756   1.365       .  A
C1747      C1748   1.386       .  A
C1748      S1754   1.715       .  A
C1748      C1749   1.409       .  A
C1749      C1750   1.409       .  A
C1749      H1758   1.082       .  S
C1750      C1753   1.379       .  A
S1751      C1752   1.723       .  A
C1752      C1753   1.391       .  A
C1753      H1759   1.082       .  S
S1754      C1755   1.727       .  A
C1755      C1756   1.384       .  A
C1756      H1760   1.083       .  S
C1761      S1767   1.711       .  A
C1761      C1766   1.386       .  A
C1761      C1762   1.403       .  A
C1762      C1763   1.404       .  A
C1762      H1773   1.083       .  S
C1763      C1772   1.372   1_554  A
C1763      C1764   1.386   1_554  A
C1764      S1770   1.708       .  A
C1764      C1765   1.401       .  A
C1765      C1766   1.402   1_556  A
C1765      H1774   1.083       .  S
C1766      C1769   1.369       .  A
S1767      C1768   1.726       .  A
C1768      C1769   1.388       .  A
C1769      H1775   1.083       .  S
S1770      C1771   1.724       .  A
C1771      C1772   1.389       .  A
C1772      H1776   1.083   1_556  S
C1777      S1783   1.706       .  A
C1777      C1782   1.387       .  A
C1777      C1778   1.404       .  A
C1778      C1779   1.404       .  A
C1778      H1789   1.083       .  S
C1779      C1788   1.375       .  A
C1779      C1780   1.387       .  A
C1780      S1786   1.703       .  A
C1780      C1781   1.401       .  A
C1781      C1782   1.401       .  A
C1781      H1790   1.083       .  S
C1782      C1785   1.373       .  A
S1783      C1784   1.727       .  A
C1784      C1785   1.386       .  A
C1785      H1791   1.083       .  S
S1786      C1787   1.724       .  A
C1787      C1788   1.389       .  A
C1788      H1792   1.083       .  S
C1793      S1799   1.711       .  A
C1793      C1798   1.386       .  A
C1793      C1794   1.404       .  A
C1794      C1795   1.405   1_556  A
C1794      H1805   1.083       .  S
C1795      C1804   1.373       .  A
C1795      C1796   1.386       .  A
C1796      S1802   1.711       .  A
C1796      C1797   1.404       .  A
C1797      C1798   1.405   1_554  A
C1797      H1806   1.083       .  S
C1798      C1801   1.372       .  A
S1799      C1800   1.725       .  A
C1800      C1801   1.390       .  A
C1801      H1807   1.083       .  S
S1802      C1803   1.725       .  A
C1803      C1804   1.390       .  A
C1804      H1808   1.083   1_545  S
C1809      S1815   1.719       .  A
C1809      C1814   1.385       .  A
C1809      C1810   1.410       .  A
C1810      C1811   1.410       .  A
C1810      H1821   1.083       .  S
C1811      C1820   1.380       .  A
C1811      C1812   1.387       .  A
C1812      S1818   1.701       .  A
C1812      C1813   1.397       .  A
C1813      C1814   1.398       .  A
C1813      H1822   1.083       .  S
C1814      C1817   1.366       .  A
S1815      C1816   1.729       .  A
C1816      C1817   1.387       .  A
C1817      H1823   1.084       .  S
S1818      C1819   1.723       .  A
C1819      C1820   1.392       .  A
C1820      H1824   1.083       .  S
C1825      S1831   1.703       .  A
C1825      C1830   1.387       .  A
C1825      C1826   1.401   1_545  A
C1826      C1827   1.401       .  A
C1826      H1837   1.083       .  S
C1827      C1836   1.371       .  A
C1827      C1828   1.387       .  A
C1828      S1834   1.705       .  A
C1828      C1829   1.402   1_565  A
C1829      C1830   1.402       .  A
C1829      H1838   1.083       .  S
C1830      C1833   1.373       .  A
S1831      C1832   1.724       .  A
C1832      C1833   1.386       .  A
C1833      H1839   1.083       .  S
S1834      C1835   1.725       .  A
C1835      C1836   1.386       .  A
C1836      H1840   1.083       .  S
C1841      S1847   1.712       .  A
C1841      C1846   1.387       .  A
C1841      C1842   1.406       .  A
C1842      C1843   1.406       .  A
C1842      H1853   1.083       .  S
C1843      C1852   1.376       .  A
C1843      C1844   1.387       .  A
C1844      S1850   1.704       .  A
C1844      C1845   1.400       .  A
C1845      C1846   1.401       .  A
C1845      H1854   1.083       .  S
C1846      C1849   1.370       .  A
S1847      C1848   1.726       .  A
C1848      C1849   1.386       .  A
C1849      H1855   1.083       .  S
S1850      C1851   1.722       .  A
C1851      C1852   1.388       .  A
C1852      H1856   1.083       .  S
C1857      S1863   1.705       .  A
C1857      C1862   1.386       .  A
C1857      C1858   1.403       .  A
C1858      C1859   1.403       .  A
C1858      H1869   1.083       .  S
C1859      C1868   1.374       .  A
C1859      C1860   1.387       .  A
C1860      S1866   1.707       .  A
C1860      C1861   1.404       .  A
C1861      C1862   1.403       .  A
C1861      H1870   1.083       .  S
C1862      C1865   1.375       .  A
S1863      C1864   1.726       .  A
C1864      C1865   1.389       .  A
C1865      H1871   1.083       .  S
S1866      C1867   1.725       .  A
C1867      C1868   1.387       .  A
C1868      H1872   1.083       .  S
C1873      S1879   1.703       .  A
C1873      C1878   1.387       .  A
C1873      C1874   1.400       .  A
C1874      C1875   1.400       .  A
C1874      H1885   1.083       .  S
C1875      C1884   1.370       .  A
C1875      C1876   1.387       .  A
C1876      S1882   1.704       .  A
C1876      C1877   1.401       .  A
C1877      C1878   1.402       .  A
C1877      H1886   1.083       .  S
C1878      C1881   1.370       .  A
S1879      C1880   1.723       .  A
C1880      C1881   1.387       .  A
C1881      H1887   1.083       .  S
S1882      C1883   1.724       .  A
C1883      C1884   1.385       .  A
C1884      H1888   1.083       .  S
C1889      S1895   1.712       .  A
C1889      C1894   1.386       .  A
C1889      C1890   1.405       .  A
C1890      C1891   1.406       .  A
C1890      H1901   1.083       .  S
C1891      C1900   1.374       .  A
C1891      C1892   1.386       .  A
C1892      S1898   1.708       .  A
C1892      C1893   1.402       .  A
C1893      C1894   1.403       .  A
C1893      H1902   1.083       .  S
C1894      C1897   1.371       .  A
S1895      C1896   1.726       .  A
C1896      C1897   1.388       .  A
C1897      H1903   1.083   1_545  S
S1898      C1899   1.725       .  A
C1899      C1900   1.390       .  A
C1900      H1904   1.083       .  S
C1905      S1911   1.695       .  A
C1905      C1910   1.387       .  A
C1905      C1906   1.393       .  A
C1906      C1907   1.394       .  A
C1906      H1917   1.084       .  S
C1907      C1916   1.360       .  A
C1907      C1908   1.386       .  A
C1908      S1914   1.714       .  A
C1908      C1909   1.406       .  A
C1909      C1910   1.407       .  A
C1909      H1918   1.083       .  S
C1910      C1913   1.375       .  A
S1911      C1912   1.721       .  A
C1912      C1913   1.389       .  A
C1913      H1919   1.083       .  S
S1914      C1915   1.726       .  A
C1915      C1916   1.384       .  A
C1916      H1920   1.084       .  S
C1921      S1927   1.707       .  A
C1921      C1926   1.386       .  A
C1921      C1922   1.403       .  A
C1922      C1923   1.403       .  A
C1922      H1933   1.083       .  S
C1923      C1932   1.374       .  A
C1923      C1924   1.386       .  A
C1924      S1930   1.712   1_565  A
C1924      C1925   1.407       .  A
C1925      C1926   1.407       .  A
C1925      H1934   1.083       .  S
C1926      C1929   1.378       .  A
S1927      C1928   1.725       .  A
C1928      C1929   1.392       .  A
C1929      H1935   1.083       .  S
S1930      C1931   1.728       .  A
C1931      C1932   1.388   1_545  A
C1932      H1936   1.083       .  S
C1937      S1943   1.702       .  A
C1937      C1942   1.387       .  A
C1937      C1938   1.400       .  A
C1938      C1939   1.400       .  A
C1938      H1949   1.083       .  S
C1939      C1948   1.370       .  A
C1939      C1940   1.386       .  A
C1940      S1946   1.709       .  A
C1940      C1941   1.406       .  A
C1941      C1942   1.406       .  A
C1941      H1950   1.083       .  S
C1942      C1945   1.377       .  A
S1943      C1944   1.724       .  A
C1944      C1945   1.389       .  A
C1945      H1951   1.083       .  S
S1946      C1947   1.728       .  A
C1947      C1948   1.386       .  A
C1948      H1952   1.083       .  S
C1953      S1959   1.705       .  A
C1953      C1958   1.387       .  A
C1953      C1954   1.400       .  A
C1954      C1955   1.401       .  A
C1954      H1965   1.083       .  S
C1955      C1964   1.368       .  A
C1955      C1956   1.387       .  A
C1956      S1962   1.704       .  A
C1956      C1957   1.399       .  A
C1957      C1958   1.400       .  A
C1957      H1966   1.083       .  S
C1958      C1961   1.367       .  A
S1959      C1960   1.723       .  A
C1960      C1961   1.385       .  A
C1961      H1967   1.083       .  S
S1962      C1963   1.722       .  A
C1963      C1964   1.386       .  A
C1964      H1968   1.083       .  S
C1969      S1975   1.717       .  A
C1969      C1974   1.386       .  A
C1969      C1970   1.410       .  A
C1970      C1971   1.410       .  A
C1970      H1981   1.082       .  S
C1971      C1980   1.379       .  A
C1971      C1972   1.387       .  A
C1972      S1978   1.696       .  A
C1972      C1973   1.394       .  A
C1973      C1974   1.395       .  A
C1973      H1982   1.083       .  S
C1974      C1977   1.363       .  A
S1975      C1976   1.728       .  A
C1976      C1977   1.384       .  A
C1977      H1983   1.083       .  S
S1978      C1979   1.721       .  A
C1979      C1980   1.392       .  A
C1980      H1984   1.082       .  S
C1985      S1991   1.711       .  A
C1985      C1990   1.386   1_554  A
C1985      C1986   1.400       .  A
C1986      C1987   1.403   1_545  A
C1986      H1997   1.084       .  S
C1987      C1996   1.366       .  A
C1987      C1988   1.386   1_554  A
C1988      S1994   1.712       .  A
C1988      C1989   1.401       .  A
C1989      C1990   1.403   1_565  A
C1989      H1998   1.084       .  S
C1990      C1993   1.366       .  A
S1991      C1992   1.723   1_554  A
C1992      C1993   1.389       .  A
C1993      H1999   1.084       .  S
S1994      C1995   1.723   1_556  A
C1995      C1996   1.389       .  A
C1996      H2000   1.084       .  S
C2001      S2007   1.714       .  A
C2001      C2006   1.386       .  A
C2001      C2002   1.405       .  A
C2002      C2003   1.406       .  A
C2002      H2013   1.083       .  S
C2003      C2012   1.376       .  A
C2003      C2004   1.387       .  A
C2004      S2010   1.709       .  A
C2004      C2005   1.403       .  A
C2005      C2006   1.404       .  A
C2005      H2014   1.083       .  S
C2006      C2009   1.373       .  A
S2007      C2008   1.724       .  A
C2008      C2009   1.389       .  A
C2009      H2015   1.083       .  S
S2010      C2011   1.725       .  A
C2011      C2012   1.389       .  A
C2012      H2016   1.083       .  S
C2017      S2023   1.711       .  A
C2017      C2022   1.386       .  A
C2017      C2018   1.406       .  A
C2018      C2019   1.407       .  A
C2018      H2029   1.083       .  S
C2019      C2028   1.376   1_564  A
C2019      C2020   1.387   1_554  A
C2020      S2026   1.704       .  A
C2020      C2021   1.400       .  A
C2021      C2022   1.401   1_556  A
C2021      H2030   1.083       .  S
C2022      C2025   1.370       .  A
S2023      C2024   1.727       .  A
C2024      C2025   1.388       .  A
C2025      H2031   1.083       .  S
S2026      C2027   1.724       .  A
C2027      C2028   1.391   1_565  A
C2028      H2032   1.083   1_556  S
C2033      S2039   1.709       .  A
C2033      C2038   1.386   1_556  A
C2033      C2034   1.405       .  A
C2034      C2035   1.404       .  A
C2034      H2045   1.083       .  S
C2035      C2044   1.376       .  A
C2035      C2036   1.386       .  A
C2036      S2042   1.707       .  A
C2036      C2037   1.405   1_556  A
C2037      C2038   1.405       .  A
C2037      H2046   1.083       .  S
C2038      C2041   1.376       .  A
S2039      C2040   1.725   1_556  A
C2040      C2041   1.390       .  A
C2041      H2047   1.083       .  S
S2042      C2043   1.728       .  A
C2043      C2044   1.389       .  A
C2044      H2048   1.083       .  S
C2049      S2055   1.707       .  A
C2049      C2054   1.387       .  A
C2049      C2050   1.404       .  A
C2050      C2051   1.404       .  A
C2050      H2061   1.083       .  S
C2051      C2060   1.373       .  A
C2051      C2052   1.387       .  A
C2052      S2058   1.702       .  A
C2052      C2053   1.399       .  A
C2053      C2054   1.399       .  A
C2053      H2062   1.083       .  S
C2054      C2057   1.369       .  A
S2055      C2056   1.725       .  A
C2056      C2057   1.385       .  A
C2057      H2063   1.083       .  S
S2058      C2059   1.722       .  A
C2059      C2060   1.389       .  A
C2060      H2064   1.083       .  S
C2065      S2071   1.698       .  A
C2065      C2070   1.388       .  A
C2065      C2066   1.393       .  A
C2066      C2067   1.395       .  A
C2066      H2077   1.083       .  S
C2067      C2076   1.359       .  A
C2067      C2068   1.386       .  A
C2068      S2074   1.715       .  A
C2068      C2069   1.405       .  A
C2069      C2070   1.407       .  A
C2069      H2078   1.082       .  S
C2070      C2073   1.372       .  A
S2071      C2072   1.720       .  A
C2072      C2073   1.388       .  A
C2073      H2079   1.083       .  S
S2074      C2075   1.725       .  A
C2075      C2076   1.385       .  A
C2076      H2080   1.083       .  S
C2081      S2087   1.708       .  A
C2081      C2086   1.386       .  A
C2081      C2082   1.398       .  A
C2082      C2083   1.402   1_545  A
C2082      H2093   1.083       .  S
C2083      C2092   1.362       .  A
C2083      C2084   1.387       .  A
C2084      S2090   1.704       .  A
C2084      C2085   1.395       .  A
C2085      C2086   1.398   1_565  A
C2085      H2094   1.083       .  S
C2086      C2089   1.360       .  A
S2087      C2088   1.723       .  A
C2088      C2089   1.385       .  A
C2089      H2095   1.083       .  S
S2090      C2091   1.719       .  A
C2091      C2092   1.387       .  A
C2092      H2096   1.084       .  S
C2097      S2103   1.711       .  A
C2097      C2102   1.386       .  A
C2097      C2098   1.407       .  A
C2098      C2099   1.406       .  A
C2098      H2109   1.083       .  S
C2099      C2108   1.379       .  A
C2099      C2100   1.387       .  A
C2100      S2106   1.704       .  A
C2100      C2101   1.402       .  A
C2101      C2102   1.402       .  A
C2101      H2110   1.083       .  S
C2102      C2105   1.374       .  A
S2103      C2104   1.728       .  A
C2104      C2105   1.388       .  A
C2105      H2111   1.083       .  S
S2106      C2107   1.726       .  A
C2107      C2108   1.390       .  A
C2108      H2112   1.083       .  S
C2113      S2119   1.705       .  A
C2113      C2118   1.387       .  A
C2113      C2114   1.401       .  A
C2114      C2115   1.402       .  A
C2114      H2125   1.083       .  S
C2115      C2124   1.371       .  A
C2115      C2116   1.387       .  A
C2116      S2122   1.704       .  A
C2116      C2117   1.400       .  A
C2117      C2118   1.401       .  A
C2117      H2126   1.083       .  S
C2118      C2121   1.371       .  A
S2119      C2120   1.725       .  A
C2120      C2121   1.386       .  A
C2121      H2127   1.083       .  S
S2122      C2123   1.723       .  A
C2123      C2124   1.387       .  A
C2124      H2128   1.083       .  S
C2129      S2135   1.706       .  A
C2129      C2134   1.386       .  A
C2129      C2130   1.401       .  A
C2130      C2131   1.402       .  A
C2130      H2141   1.083       .  S
C2131      C2140   1.370       .  A
C2131      C2132   1.386       .  A
C2132      S2138   1.707       .  A
C2132      C2133   1.403       .  A
C2133      C2134   1.403       .  A
C2133      H2142   1.083       .  S
C2134      C2137   1.371       .  A
S2135      C2136   1.724       .  A
C2136      C2137   1.388       .  A
C2137      H2143   1.083   1_545  S
S2138      C2139   1.726       .  A
C2139      C2140   1.388       .  A
C2140      H2144   1.083       .  S
C2145      S2151   1.716       .  A
C2145      C2150   1.385       .  A
C2145      C2146   1.406       .  A
C2146      C2147   1.408       .  A
C2146      H2157   1.082       .  S
C2147      C2156   1.375       .  A
C2147      C2148   1.388       .  A
C2148      S2154   1.695       .  A
C2148      C2149   1.393       .  A
C2149      C2150   1.395       .  A
C2149      H2158   1.083       .  S
C2150      C2153   1.359       .  A
S2151      C2152   1.726       .  A
C2152      C2153   1.384       .  A
C2153      H2159   1.084       .  S
S2154      C2155   1.720       .  A
C2155      C2156   1.388       .  A
C2156      H2160   1.083       .  S
C2161      S2167   1.701       .  A
C2161      C2166   1.387   1_455  A
C2161      C2162   1.399   1_545  A
C2162      C2163   1.399       .  A
C2162      H2173   1.083       .  S
C2163      C2172   1.369       .  A
C2163      C2164   1.388   1_455  A
C2164      S2170   1.701       .  A
C2164      C2165   1.400   1_565  A
C2165      C2166   1.400       .  A
C2165      H2174   1.083       .  S
C2166      C2169   1.370       .  A
S2167      C2168   1.723   1_455  A
C2168      C2169   1.385       .  A
C2169      H2175   1.083       .  S
S2170      C2171   1.724   1_655  A
C2171      C2172   1.383       .  A
C2172      H2176   1.083       .  S
C2177      S2183   1.702       .  A
C2177      C2182   1.387       .  A
C2177      C2178   1.398       .  A
C2178      C2179   1.399       .  A
C2178      H2189   1.083       .  S
C2179      C2188   1.367       .  A
C2179      C2180   1.386       .  A
C2180      S2186   1.715       .  A
C2180      C2181   1.408       .  A
C2181      C2182   1.408       .  A
C2181      H2190   1.083       .  S
C2182      C2185   1.378       .  A
S2183      C2184   1.720       .  A
C2184      C2185   1.390       .  A
C2185      H2191   1.083       .  S
S2186      C2187   1.727       .  A
C2187      C2188   1.385       .  A
C2188      H2192   1.083       .  S
C2193      S2199   1.703       .  A
C2193      C2198   1.387       .  A
C2193      C2194   1.401       .  A
C2194      C2195   1.401       .  A
C2194      H2205   1.083       .  S
C2195      C2204   1.371       .  A
C2195      C2196   1.386       .  A
C2196      S2202   1.712       .  A
C2196      C2197   1.406       .  A
C2197      C2198   1.406       .  A
C2197      H2206   1.083       .  S
C2198      C2201   1.377       .  A
S2199      C2200   1.725       .  A
C2200      C2201   1.390       .  A
C2201      H2207   1.083       .  S
S2202      C2203   1.726       .  A
C2203      C2204   1.387       .  A
C2204      H2208   1.083       .  S
C2209      S2215   1.705       .  A
C2209      C2214   1.387       .  A
C2209      C2210   1.401       .  A
C2210      C2211   1.402       .  A
C2210      H2221   1.083       .  S
C2211      C2220   1.370       .  A
C2211      C2212   1.387       .  A
C2212      S2218   1.703       .  A
C2212      C2213   1.399       .  A
C2213      C2214   1.400       .  A
C2213      H2222   1.083       .  S
C2214      C2217   1.368       .  A
S2215      C2216   1.723       .  A
C2216      C2217   1.385       .  A
C2217      H2223   1.083       .  S
S2218      C2219   1.723       .  A
C2219      C2220   1.386       .  A
C2220      H2224   1.083       .  S
C2225      S2231   1.706       .  A
C2225      C2230   1.387       .  A
C2225      C2226   1.402       .  A
C2226      C2227   1.402       .  A
C2226      H2237   1.083       .  S
C2227      C2236   1.372       .  A
C2227      C2228   1.387       .  A
C2228      S2234   1.705       .  A
C2228      C2229   1.401       .  A
C2229      C2230   1.402       .  A
C2229      H2238   1.083       .  S
C2230      C2233   1.371       .  A
S2231      C2232   1.725       .  A
C2232      C2233   1.388       .  A
C2233      H2239   1.083       .  S
S2234      C2235   1.724       .  A
C2235      C2236   1.387       .  A
C2236      H2240   1.083   1_545  S
