geometry optimzed in LAMMPS
_audit_creation_date              2020-12-01 
_audit_creation_method            'lammps2cif' 
_symmetry_space_group_name_H-M    'P1' 
_symmetry_Int_Tables_number       1 
_symmetry_cell_setting            triclinic 
loop_ 
_symmetry_equiv_pos_as_xyz 
  x,y,z 
_cell_length_a                    29.11229747 
_cell_length_b                    45.42515391238775 
_cell_length_c                    27.180255876079727 
_cell_angle_alpha                 89.86567847540385 
_cell_angle_beta                  101.1419767440096 
_cell_angle_gamma                 89.96232112117598 
loop_ 
_atom_site_label 
_atom_site_type_symbol 
_atom_site_fract_x 
_atom_site_fract_y 
_atom_site_fract_z 
_atom_site_charge 
O1          O  0.18417975  0.62874358  0.69235795    -0.85600
O2          O  0.25509461  0.59192211  0.73142374    -0.82700
C3          C  0.23309176  0.56769257  0.73109209     0.97800
O4          O  0.21662749  0.55523547  0.69024743    -0.82700
O5          O  0.18274813  0.54469961  0.58972734    -0.85400
C6          C  0.14196028  0.55578114  0.58219417     1.02300
O7          O  0.13689495  0.58208583  0.59328589    -0.78100
O8          O  0.14967848  0.63908779  0.61566252    -0.78300
C9          C  0.14823554  0.63679034  0.66187185     1.02300
O10         O  0.24182540  0.65938726  0.63135618    -0.85600
O11         O  0.31097302  0.61834381  0.66537609    -0.82700
C12         C  0.33150005  0.59397776  0.67483251     0.97800
O13         O  0.30791647  0.57023783  0.67100367    -0.82700
O14         O  0.26970914  0.56531600  0.56929158    -0.85300
C15         C  0.24133165  0.56872022  0.52834689     1.02300
O16         O  0.20366693  0.58321019  0.52699442    -0.78200
O17         O  0.22398173  0.63920073  0.55698360    -0.78300
C18         C  0.23965210  0.66057980  0.58412562     1.02300
Cr19       Cr  0.24657912  0.62316254  0.67654604     1.93700
Cr20       Cr  0.24318679  0.56151783  0.63036021     1.93200
Cr21       Cr  0.18172595  0.61031136  0.57664342     1.39100
O22         O  0.22451943  0.59854964  0.62746661    -1.23400
O23         O  0.82191436  0.62320939  0.78293763    -0.85600
O24         O  0.74666063  0.58709390  0.75437532    -0.82700
C25         C  0.76327886  0.56098489  0.75686756     0.97800
O26         O  0.78028407  0.54963970  0.79858603    -0.82700
O27         O  0.82252410  0.54354363  0.89654064    -0.85400
C28         C  0.86418658  0.55200063  0.89781182     1.02300
O29         O  0.87173407  0.57757009  0.88371452    -0.78100
O30         O  0.86145083  0.63533906  0.85656537    -0.78300
C31         C  0.85925494  0.63213204  0.80989153     1.02300
O32         O  0.77188723  0.65875878  0.84707681    -0.85600
O33         O  0.69807750  0.61955876  0.82088882    -0.82700
C34         C  0.67517545  0.59589164  0.81754880     0.97800
O35         O  0.69632490  0.57143859  0.82520694    -0.82700
O36         O  0.74310130  0.57173080  0.92402208    -0.85300
C37         C  0.77563458  0.57330284  0.96183768     1.02300
O38         O  0.81434826  0.58498607  0.95784918    -0.78200
O39         O  0.79547395  0.64052049  0.92263439    -0.78300
C40         C  0.77907694  0.66159868  0.89479549     1.02300
Cr41       Cr  0.76134716  0.62074038  0.80502511     1.93700
Cr42       Cr  0.76190722  0.56174990  0.86055924     1.93200
Cr43       Cr  0.83227780  0.60900443  0.90181001     1.39100
O44         O  0.78474831  0.59735981  0.85575508    -1.23400
O45         O  0.76890195  0.34867719  0.34948013    -0.85600
O46         O  0.69573905  0.38844508  0.31896862    -0.82700
C47         C  0.67388559  0.41257212  0.31131012     0.97800
O48         O  0.69636866  0.43660573  0.31463116    -0.82700
O49         O  0.73967197  0.44159659  0.41451574    -0.85400
C50         C  0.76935619  0.43811703  0.45454296     1.02300
O51         O  0.80829036  0.42555876  0.45356725    -0.78100
O52         O  0.79101310  0.36860785  0.42373236    -0.78300
C53         C  0.77499226  0.34700216  0.39704501     1.02300
O54         O  0.82100354  0.38013774  0.28395987    -0.85600
O55         O  0.74649071  0.41566171  0.24954144    -0.82700
C56         C  0.76733706  0.44010748  0.24852865     0.97800
O57         O  0.78341007  0.45366120  0.28838809    -0.82700
O58         O  0.82171722  0.46529336  0.38619638    -0.85300
C59         C  0.86317860  0.45625883  0.38834704     1.02300
O60         O  0.87054924  0.42948672  0.38186084    -0.78200
O61         O  0.86000512  0.37164547  0.35973215    -0.78300
C62         C  0.85834972  0.37250423  0.31274326     1.02300
Cr63       Cr  0.75966126  0.38485242  0.30431606     1.93700
Cr64       Cr  0.76156318  0.44650642  0.35083678     1.93200
Cr65       Cr  0.82896415  0.39947990  0.40124185     1.39100
O66         O  0.78284271  0.41002053  0.35250932    -1.23400
O67         O  0.24008827  0.34640579  0.12905890    -0.85600
O68         O  0.30903087  0.38698379  0.16237049    -0.82700
C69         C  0.32981458  0.41136306  0.16930416     0.97800
O70         O  0.30657578  0.43514984  0.16462348    -0.82700
O71         O  0.25903659  0.44041888  0.06583944    -0.85400
C72         C  0.22726719  0.43847737  0.02726960     1.02300
O73         O  0.19003050  0.42434138  0.02927840    -0.78100
O74         O  0.21608316  0.36765128  0.05589865    -0.78300
C75         C  0.23504517  0.34617600  0.08128270     1.02300
O76         O  0.18488423  0.37487626  0.19654856    -0.85600
O77         O  0.25771408  0.41196515  0.23349866    -0.82700
C78         C  0.23864275  0.43711371  0.23474999     0.97800
O79         O  0.22050384  0.44987001  0.19475058    -0.82700
O80         O  0.17721441  0.46033011  0.09976389    -0.85300
C81         C  0.13649325  0.44998589  0.09781201     1.02300
O82         O  0.13080042  0.42285650  0.10301806    -0.78200
O83         O  0.14817922  0.36467499  0.12088187    -0.78300
C84         C  0.14851355  0.36609831  0.16747610     1.02300
Cr85       Cr  0.24594904  0.38158726  0.17684485     1.93700
Cr86       Cr  0.23982324  0.44361566  0.13119659     1.93200
Cr87       Cr  0.17485123  0.39550435  0.08080567     1.39100
O88         O  0.22080450  0.40676163  0.12944971    -1.23400
O89         O  0.74668804  0.84700661  0.13426280    -0.85600
O90         O  0.81630556  0.88825784  0.16548795    -0.82700
C91         C  0.83708088  0.91260639  0.17362175     0.97800
O92         O  0.81355045  0.93635297  0.16951499    -0.82700
O93         O  0.76787152  0.94090347  0.06945670    -0.85400
C94         C  0.73707345  0.93785557  0.03019632     1.02300
O95         O  0.69959703  0.92394065  0.03199124    -0.78100
O96         O  0.72425530  0.86757156  0.06040659    -0.78300
C97         C  0.74143182  0.84594478  0.08653960     1.02300
O98         O  0.69257906  0.87650544  0.20079767    -0.85600
O99         O  0.76472397  0.91395579  0.23598302    -0.82700
C100        C  0.74384974  0.93851664  0.23717494     0.97800
O101        O  0.72571795  0.95135063  0.19714260    -0.82700
O102        O  0.68460760  0.96136040  0.09972074    -0.85300
C103        C  0.64369102  0.95092712  0.09605751     1.02300
O104        O  0.63823227  0.92401618  0.10366400    -0.78200
O105        O  0.65599870  0.86619696  0.12492905    -0.78300
C106        C  0.65635451  0.86782850  0.17151915     1.02300
Cr107      Cr  0.75330413  0.88295959  0.18055201     1.93700
Cr108      Cr  0.74691933  0.94474873  0.13405869     1.93200
Cr109      Cr  0.68295392  0.89610426  0.08379869     1.39100
O110        O  0.72818653  0.90780685  0.13260905    -1.23400
O111        O  0.27426612  0.84536550  0.34543540    -0.85600
O112        O  0.20366887  0.88650360  0.31664458    -0.82700
C113        C  0.18259871  0.91093256  0.31154149     0.97800
O114        O  0.20589525  0.93475271  0.31608371    -0.82700
O115        O  0.25034064  0.93801287  0.41565589    -0.85400
C116        C  0.28047767  0.93476097  0.45532980     1.02300
O117        O  0.31753401  0.92013243  0.45455045    -0.78100
O118        O  0.29317347  0.86456799  0.42049285    -0.78300
C119        C  0.27744596  0.84340407  0.39266136     1.02300
O120        O  0.32893860  0.87754055  0.28390244    -0.85600
O121        O  0.25550206  0.91438520  0.24880672    -0.82700
C122        C  0.27594211  0.93909533  0.24896152     0.97800
O123        O  0.29404912  0.95101265  0.28976302    -0.82700
O124        O  0.33391890  0.95946393  0.38832857    -0.85300
C125        C  0.37500442  0.94898471  0.39435260     1.02300
O126        O  0.38103556  0.92227721  0.38576001    -0.78200
O127        O  0.36471301  0.86512817  0.35929920    -0.78300
C128        C  0.36489053  0.86797980  0.31290634     1.02300
Cr129      Cr  0.26735547  0.88246050  0.30241059     1.93700
Cr130      Cr  0.27221493  0.94309785  0.35209600     1.93200
Cr131      Cr  0.33563194  0.89366330  0.40144660     1.39100
O132        O  0.29139045  0.90633171  0.35217643    -1.23400
O133        O  0.32527761  0.12492616  0.78351887    -0.85600
O134        O  0.25243738  0.08853197  0.75021659    -0.82700
C135        C  0.27314750  0.06366575  0.75180921     0.97800
O136        O  0.28962298  0.05194272  0.79340308    -0.82700
O137        O  0.32560246  0.04334502  0.89315561    -0.85400
C138        C  0.36715573  0.05261878  0.89768203     1.02300
O139        O  0.37446670  0.07881930  0.88676737    -0.78100
O140        O  0.36271499  0.13599088  0.85885274    -0.78300
C141        C  0.36199948  0.13319093  0.81232995     1.02300
O142        O  0.27292745  0.15923874  0.84497918    -0.85600
O143        O  0.20046737  0.11852460  0.81748444    -0.82700
C144        C  0.17890163  0.09434416  0.81167107     0.97800
O145        O  0.20149108  0.07032312  0.81539238    -0.82700
O146        O  0.24217766  0.06789961  0.91601561    -0.85300
C147        C  0.27197031  0.07130138  0.95586873     1.02300
O148        O  0.31027438  0.08450965  0.95483392    -0.78200
O149        O  0.29232159  0.14042236  0.92032510    -0.78300
C150        C  0.27965308  0.16220245  0.89253305     1.02300
Cr151      Cr  0.26408153  0.12135195  0.80275412     1.93700
Cr152      Cr  0.26596070  0.06107753  0.85402938     1.93200
Cr153      Cr  0.33162242  0.10931114  0.90178782     1.39100
O154        O  0.28684973  0.09746502  0.85310236    -1.23400
O155        O  0.68867277  0.12972235  0.69914300    -0.85600
O156        O  0.76157413  0.09365923  0.73603269    -0.82700
C157        C  0.74130870  0.06888789  0.73673265     0.97800
O158        O  0.72460619  0.05594709  0.69652755    -0.82700
O159        O  0.68589717  0.04527785  0.59927226    -0.85400
C160        C  0.64463719  0.05511036  0.59498812     1.02300
O161        O  0.63802478  0.08186428  0.60270721    -0.78100
O162        O  0.65219004  0.13995454  0.62319894    -0.78300
C163        C  0.65229448  0.13796532  0.66966505     1.02300
O164        O  0.74222282  0.16059337  0.63416760    -0.85600
O165        O  0.81370502  0.12049708  0.66736018    -0.82700
C166        C  0.83491527  0.09625764  0.67542013     0.97800
O167        O  0.81224406  0.07226058  0.67040506    -0.82700
O168        O  0.76838032  0.06694132  0.56988693    -0.85300
C169        C  0.73725843  0.06921057  0.53065631     1.02300
O170        O  0.69971243  0.08320039  0.53190920    -0.78200
O171        O  0.72145429  0.14006073  0.56016042    -0.78300
C172        C  0.73691889  0.16191002  0.58647868     1.02300
Cr173      Cr  0.74993338  0.12460319  0.68048247     1.93700
Cr174      Cr  0.74677019  0.06289266  0.63417604     1.93200
Cr175      Cr  0.68131912  0.11066996  0.58299515     1.39100
O176        O  0.72669225  0.09958946  0.63220225    -1.23400
C177        C  0.43941170  0.13853810  0.66631555    -0.18100
C178        C  0.48005868  0.13984170  0.64612087    -0.20300
C179        C  0.52413978  0.14199770  0.67771153     0.20400
C180        C  0.52727893  0.14273198  0.73021661    -0.03200
C181        C  0.48627169  0.14150975  0.75058950    -0.06300
C182        C  0.44217994  0.13945429  0.71843515     0.20600
C183        C  0.48946767  0.14193921  0.80311029     0.18800
C184        C  0.53360024  0.14328322  0.83474742    -0.17800
C185        C  0.57424463  0.14437715  0.81456589    -0.20000
C186        C  0.57141662  0.14417126  0.76242701     0.20300
C187        C  0.61203781  0.14452892  0.74201679    -0.33000
C188        C  0.60931991  0.14322852  0.68977232     0.01000
C189        C  0.56517180  0.14252867  0.65780610    -0.24300
C190        C  0.40166887  0.13789694  0.73896665    -0.28900
C191        C  0.40451266  0.13833639  0.79130732     0.06700
C192        C  0.44857179  0.14052437  0.82311357    -0.27600
H193        H  0.40579657  0.13672789  0.64115844     0.11400
H194        H  0.47703249  0.13895546  0.60577916     0.12500
H195        H  0.53669591  0.14336150  0.87510572     0.11600
H196        H  0.60795585  0.14522718  0.83978519     0.10800
H197        H  0.64593108  0.14480983  0.76700101     0.16200
H198        H  0.56277585  0.14094566  0.61759562     0.12100
H199        H  0.36791512  0.13582074  0.71409281     0.15000
H200        H  0.45117021  0.14024418  0.86343040     0.14800
C201        C  0.98552311  0.04290731  0.71688790    -0.18100
C202        C  0.03336325  0.04244179  0.73765245    -0.20300
C203        C  0.05607428  0.06805038  0.75842903     0.20400
C204        C  0.03029620  0.09431946  0.75887556    -0.03200
C205        C  0.98204577  0.09479695  0.73787282    -0.06300
C206        C  0.95962683  0.06899301  0.71656530     0.20600
C207        C  0.95636989  0.12114389  0.73783893     0.18800
C208        C  0.97889032  0.14659578  0.75956558    -0.17800
C209        C  0.02676295  0.14615499  0.78020050    -0.20000
C210        C  0.05284571  0.12022300  0.77956877     0.20300
C211        C  0.10122869  0.11990644  0.79826391    -0.33000
C212        C  0.12733974  0.09398480  0.79670901     0.01000
C213        C  0.10429955  0.06800316  0.77770119    -0.24300
C214        C  0.91172915  0.06971617  0.69535779    -0.28900
C215        C  0.88599789  0.09596654  0.69478156     0.06700
C216        C  0.90863394  0.12158337  0.71611257    -0.27600
H217        H  0.96882908  0.02289788  0.70080495     0.11400
H218        H  0.05270748  0.02209443  0.73705105     0.12500
H219        H  0.95954579  0.16694450  0.76018720     0.11600
H220        H  0.04348194  0.16617233  0.79618985     0.10800
H221        H  0.11867316  0.13996636  0.81314542     0.16200
H222        H  0.12414712  0.04791329  0.77629220     0.12100
H223        H  0.89446253  0.04983421  0.67936761     0.15000
H224        H  0.88889494  0.14179664  0.71666188     0.14800
C225        C  0.47529802  0.04436580  0.53616400    -0.18100
C226        C  0.43787833  0.03089187  0.50430204    -0.20300
C227        C  0.44547448  0.00608102  0.47629091     0.20400
C228        C  0.49109288  0.99452664  0.48064906    -0.03200
C229        C  0.52876142  0.00800038  0.51297281    -0.06300
C230        C  0.52080502  0.03314593  0.54058232     0.20600
C231        C  0.57442910  0.99656682  0.51709572     0.18800
C232        C  0.58202569  0.97169413  0.48923707    -0.17800
C233        C  0.54456919  0.95817735  0.45746167    -0.20000
C234        C  0.49904733  0.96944408  0.45290210     0.20300
C235        C  0.46116524  0.95568647  0.42198102    -0.33000
C236        C  0.41544730  0.96666679  0.41849745     0.01000
C237        C  0.40804092  0.99221714  0.44493837    -0.24300
C238        C  0.55871143  0.04722083  0.57079114    -0.28900
C239        C  0.60447508  0.03662620  0.57335026     0.06700
C240        C  0.61193787  0.01079886  0.54765244    -0.27600
H241        H  0.46869810  0.06367954  0.55709920     0.11400
H242        H  0.40298675  0.03988654  0.50153382     0.12500
H243        H  0.61694514  0.96278922  0.49184722     0.11600
H244        H  0.55120291  0.93890527  0.43643516     0.10800
H245        H  0.46706678  0.93583817  0.40195835     0.16200
H246        H  0.37281455  0.00051248  0.44310395     0.12100
H247        H  0.55281803  0.06720677  0.59045544     0.15000
H248        H  0.64721244  0.00272823  0.54901381     0.14800
C249        C  0.33344901  0.95825540  0.63509647    -0.18100
C250        C  0.33401515  0.97729401  0.67558391    -0.20300
C251        C  0.30606856  0.00275491  0.67006262     0.20400
C252        C  0.27744152  0.00924912  0.62337387    -0.03200
C253        C  0.27658161  0.98988062  0.58258245    -0.06300
C254        C  0.30478245  0.96428622  0.58844925     0.20600
C255        C  0.24762296  0.99619031  0.53594595     0.18800
C256        C  0.22035211  0.02193678  0.53025754    -0.17800
C257        C  0.22123949  0.04113273  0.57066489    -0.20000
C258        C  0.24939600  0.03493743  0.61754073     0.20300
C259        C  0.24927144  0.05358562  0.65888400    -0.33000
C260        C  0.27659408  0.04665601  0.70601213     0.01000
C261        C  0.30562911  0.02149285  0.71076517    -0.24300
C262        C  0.30441276  0.94547134  0.54738798    -0.28900
C263        C  0.27576880  0.95171478  0.50063921     0.06700
C264        C  0.24702505  0.97694471  0.49554765    -0.27600
H265        H  0.35538281  0.93878120  0.64030670     0.11400
H266        H  0.35620379  0.97203628  0.71131988     0.12500
H267        H  0.19821784  0.02721771  0.49450006     0.11600
H268        H  0.19960652  0.06073317  0.56532696     0.10800
H269        H  0.22685551  0.07285092  0.65478042     0.16200
H270        H  0.32732970  0.01600725  0.74669598     0.12100
H271        H  0.32707774  0.92631592  0.55152133     0.15000
H272        H  0.22556851  0.98234698  0.45943594     0.14800
C273        C  0.33954922  0.04026526  0.12722318    -0.18100
C274        C  0.34265544  0.01980679  0.16608851    -0.20300
C275        C  0.30925791  0.99736088  0.16370422     0.20400
C276        C  0.27247130  0.99527480  0.12172898    -0.03200
C277        C  0.26932132  0.01598158  0.08243452    -0.06300
C278        C  0.30308816  0.03852622  0.08530614     0.20600
C279        C  0.23283699  0.01392570  0.04011216     0.18800
C280        C  0.19960124  0.99129510  0.03772455    -0.17800
C281        C  0.20248488  0.97088505  0.07697150    -0.20000
C282        C  0.23877168  0.97266050  0.11920919     0.20300
C283        C  0.24134836  0.95282272  0.15957780    -0.33000
C284        C  0.27695623  0.95570851  0.20236916     0.01000
C285        C  0.31140420  0.97749834  0.20334047    -0.24300
C286        C  0.30096265  0.05831542  0.04544919    -0.28900
C287        C  0.26618740  0.05559257  0.00201193     0.06700
C288        C  0.23131186  0.03387176  0.00022864    -0.27600
H289        H  0.36585812  0.05734924  0.12980684     0.11400
H290        H  0.37108341  0.02163735  0.19819395     0.12500
H291        H  0.17145688  0.98930831  0.00539930     0.11600
H292        H  0.17627139  0.95374121  0.07431970     0.10800
H293        H  0.21455861  0.93617070  0.15874648     0.16200
H294        H  0.33922739  0.97967172  0.23601644     0.12100
H295        H  0.32805571  0.07486058  0.04717741     0.15000
H296        H  0.20456357  0.03138546  0.96673303     0.14800
C297        C  0.43328690  0.97732119  0.02210330    -0.18100
C298        C  0.47223157  0.96453200  0.05312091    -0.20300
C299        C  0.51772260  0.97354885  0.04999617     0.20400
C300        C  0.52398432  0.99588640  0.01569034    -0.03200
C301        C  0.48485221  0.00832044  0.98378952    -0.06300
C302        C  0.43926771  0.99903156  0.98701797     0.20600
C303        C  0.49143090  0.03016172  0.94877571     0.18800
C304        C  0.53675596  0.03942967  0.94601707    -0.17800
C305        C  0.57550789  0.02725841  0.97778071    -0.20000
C306        C  0.56942905  0.00548096  0.01259569     0.20300
C307        C  0.60827362  0.99237738  0.04290865    -0.33000
C308        C  0.60254131  0.96894836  0.07489934     0.01000
C309        C  0.55716708  0.95999918  0.07917591    -0.24300
C310        C  0.40054211  0.01215812  0.95596073    -0.28900
C311        C  0.40704469  0.03456452  0.92214466     0.06700
C312        C  0.45253854  0.04293828  0.91805061    -0.27600
H313        H  0.39852274  0.97011972  0.02534525     0.11400
H314        H  0.46678463  0.94748798  0.07936768     0.12500
H315        H  0.54227496  0.05628058  0.91927621     0.11600
H316        H  0.61015962  0.03463282  0.97481405     0.10800
H317        H  0.64305992  0.99904103  0.03889960     0.16200
H318        H  0.55264516  0.94180703  0.10372290     0.12100
H319        H  0.36546836  0.00601535  0.95989786     0.15000
H320        H  0.45766665  0.06037780  0.89212665     0.14800
C321        C  0.66290830  0.99567095  0.82437391    -0.18100
C322        C  0.66398920  0.97541967  0.86336323    -0.20300
C323        C  0.70291337  0.97392983  0.90280321     0.20400
C324        C  0.74127329  0.99293398  0.90288892    -0.03200
C325        C  0.74005630  0.01355036  0.86369134    -0.06300
C326        C  0.70072218  0.01481249  0.82429122     0.20600
C327        C  0.77828122  0.03275159  0.86378091     0.18800
C328        C  0.81738584  0.03094607  0.90297089    -0.17800
C329        C  0.81854069  0.01057233  0.94194490    -0.20000
C330        C  0.78054339  0.99159787  0.94241003     0.20300
C331        C  0.78050617  0.97200715  0.98249150    -0.33000
C332        C  0.74148226  0.95388212  0.98372465     0.01000
C333        C  0.70345224  0.95442811  0.94292354    -0.24300
C334        C  0.70038615  0.03462095  0.78473585    -0.28900
C335        C  0.73886139  0.05321339  0.78373540     0.06700
C336        C  0.77720480  0.05275025  0.82396269    -0.27600
H337        H  0.63254210  0.99634515  0.79426899     0.11400
H338        H  0.63420010  0.96100840  0.86280698     0.12500
H339        H  0.84723128  0.04534593  0.90350036     0.11600
H340        H  0.84896364  0.00981011  0.97189733     0.10800
H341        H  0.80993292  0.97183208  0.01368450     0.16200
H342        H  0.67310541  0.94065555  0.94342331     0.12100
H343        H  0.67078916  0.03488572  0.75365065     0.15000
H344        H  0.80726272  0.06671402  0.82282504     0.14800
C345        C  0.82164023  0.99868509  0.44072487    -0.18100
C346        C  0.82151991  0.97874188  0.40141843    -0.20300
C347        C  0.78149933  0.97533632  0.36369668     0.20400
C348        C  0.74119469  0.99230474  0.36572618    -0.03200
C349        C  0.74135732  0.01245318  0.40531152    -0.06300
C350        C  0.78177217  0.01565759  0.44304501     0.20600
C351        C  0.70101807  0.02933072  0.40711796     0.18800
C352        C  0.66089308  0.02593752  0.36960209    -0.17800
C353        C  0.66088115  0.00624130  0.33018433    -0.20000
C354        C  0.70086538  0.98943977  0.32784965     0.20300
C355        C  0.70155901  0.97038746  0.28758900    -0.33000
C356        C  0.74182147  0.95387713  0.28457812     0.01000
C357        C  0.78140508  0.95592113  0.32330057    -0.24300
C358        C  0.78131021  0.03539221  0.48278506    -0.28900
C359        C  0.74091735  0.05199335  0.48521490     0.06700
C360        C  0.70115653  0.04900138  0.44675656    -0.27600
H361        H  0.85298272  0.00082745  0.46936888     0.11400
H362        H  0.85285272  0.96605554  0.40041772     0.12500
H363        H  0.62955064  0.03861512  0.37063312     0.11600
H364        H  0.62962805  0.00424024  0.30137001     0.10800
H365        H  0.67105038  0.96896407  0.25762859     0.16200
H366        H  0.81278206  0.94366056  0.32059099     0.12100
H367        H  0.81193920  0.03722981  0.51246979     0.15000
H368        H  0.66952713  0.06125144  0.44847331     0.14800
C369        C  0.44397244  0.86930488  0.16857240    -0.18100
C370        C  0.48472355  0.86923806  0.14861559    -0.20300
C371        C  0.52836203  0.86401454  0.17962912     0.20400
C372        C  0.53098526  0.85863857  0.23130265    -0.03200
C373        C  0.48970523  0.85861482  0.25147558    -0.06300
C374        C  0.44614117  0.86413742  0.21988243     0.20600
C375        C  0.49213058  0.85385784  0.30330475     0.18800
C376        C  0.53594303  0.84870645  0.33429662    -0.17800
C377        C  0.57692759  0.84888445  0.31433802    -0.20000
C378        C  0.57488042  0.85409752  0.26297007     0.20300
C379        C  0.61590737  0.85572298  0.24290028    -0.33000
C380        C  0.61347532  0.86146313  0.19144327     0.01000
C381        C  0.56946238  0.86500189  0.16001471    -0.24300
C382        C  0.40554383  0.86535552  0.24021266    -0.28900
C383        C  0.40747516  0.86163078  0.29203009     0.06700
C384        C  0.45093716  0.85530306  0.32331227    -0.27600
H385        H  0.41074508  0.87375641  0.14391721     0.11400
H386        H  0.48215798  0.87364057  0.10897925     0.12500
H387        H  0.53860778  0.84499709  0.37413206     0.11600
H388        H  0.61031384  0.84530497  0.33922829     0.10800
H389        H  0.64975470  0.85323087  0.26748610     0.16200
H390        H  0.56728502  0.87004622  0.12061246     0.12100
H391        H  0.37246440  0.87033148  0.21562207     0.15000
H392        H  0.45299987  0.85263827  0.36330397     0.14800
C393        C  0.98490777  0.85900934  0.23477460    -0.18100
C394        C  0.03257065  0.85872367  0.25640234    -0.20300
C395        C  0.05717552  0.88520042  0.26745237     0.20400
C396        C  0.03330781  0.91225166  0.25743641    -0.03200
C397        C  0.98504959  0.91254095  0.23572003    -0.06300
C398        C  0.96093108  0.88577713  0.22399430     0.20600
C399        C  0.96105504  0.93955745  0.22553119     0.18800
C400        C  0.98554739  0.96602211  0.23751317    -0.17800
C401        C  0.03344553  0.96573866  0.25865264    -0.20000
C402        C  0.05776066  0.93898508  0.26843446     0.20300
C403        C  0.10621601  0.93848399  0.28790576    -0.33000
C404        C  0.13062481  0.91156436  0.29651925     0.01000
C405        C  0.10543163  0.88503697  0.28717818    -0.24300
C406        C  0.91318466  0.88616086  0.20207525    -0.28900
C407        C  0.88864979  0.91294181  0.19215175     0.06700
C408        C  0.91301744  0.93960226  0.20390310    -0.27600
H409        H  0.96681674  0.83825688  0.22629612     0.11400
H410        H  0.05032774  0.83775424  0.26398309     0.12500
H411        H  0.96771508  0.98698052  0.23022186     0.11600
H412        H  0.05157314  0.98649464  0.26700909     0.10800
H413        H  0.12509518  0.95907739  0.29510573     0.16200
H414        H  0.12362513  0.86414367  0.29377399     0.12100
H415        H  0.89490597  0.86545094  0.19370177     0.15000
H416        H  0.89451577  0.96036716  0.19687877     0.14800
C417        C  0.30475568  0.21949891  0.04923693    -0.18100
C418        C  0.29959954  0.24510789  0.07613766    -0.20300
C419        C  0.27900506  0.27031480  0.05127514     0.20400
C420        C  0.26519920  0.26994455  0.99840265    -0.03200
C421        C  0.27025583  0.24399677  0.97118251    -0.06300
C422        C  0.28936065  0.21861363  0.99698448     0.20600
C423        C  0.25518268  0.24324363  0.91844627     0.18800
C424        C  0.23659978  0.26893521  0.89339765    -0.17800
C425        C  0.23166788  0.29466272  0.92033233    -0.20000
C426        C  0.24510732  0.29519623  0.97287164     0.20300
C427        C  0.23737211  0.32021489  0.00038409    -0.33000
C428        C  0.24859213  0.32034234  0.05340244     0.01000
C429        C  0.27062061  0.29548393  0.07844873    -0.24300
C430        C  0.29206724  0.19254662  0.97040733    -0.28900
C431        C  0.27598071  0.19101219  0.91795253     0.06700
C432        C  0.25827264  0.21674612  0.89201746    -0.27600
H433        H  0.31999386  0.20016243  0.06947677     0.11400
H434        H  0.31086951  0.24499398  0.11653606     0.12500
H435        H  0.22515745  0.26901246  0.85302195     0.11600
H436        H  0.21642973  0.31400470  0.90010948     0.10800
H437        H  0.22097945  0.33930802  0.98029629     0.16200
H438        H  0.28008095  0.29541356  0.11902361     0.12100
H439        H  0.30669456  0.17321140  0.99114393     0.15000
H440        H  0.24637743  0.21606567  0.85170840     0.14800
C441        C  0.75278549  0.21257908  0.42948219    -0.18100
C442        C  0.75622176  0.23839254  0.40214703    -0.20300
C443        C  0.75815201  0.26597596  0.42560478     0.20400
C444        C  0.75639408  0.26745305  0.47718209    -0.03200
C445        C  0.75306913  0.24139383  0.50482097    -0.06300
C446        C  0.75131828  0.21387293  0.48081079     0.20600
C447        C  0.75148778  0.24291015  0.55644019     0.18800
C448        C  0.75285225  0.27049758  0.57974721    -0.17800
C449        C  0.75626650  0.29628118  0.55244478    -0.20000
C450        C  0.75828940  0.29494916  0.50130343     0.20300
C451        C  0.76284716  0.32065825  0.47414480    -0.33000
C452        C  0.76559830  0.31949227  0.42296647     0.01000
C453        C  0.76251710  0.29204006  0.39870363    -0.24300
C454        C  0.74767094  0.18813438  0.50839603    -0.28900
C455        C  0.74566833  0.18935598  0.55986119     0.06700
C456        C  0.74805542  0.21688575  0.58369508    -0.27600
H457        H  0.75133664  0.19157410  0.41046476     0.11400
H458        H  0.75752639  0.23676341  0.36267434     0.12500
H459        H  0.75140267  0.27214324  0.61918290     0.11600
H460        H  0.75755866  0.31729213  0.57142577     0.10800
H461        H  0.76489242  0.34168276  0.49322913     0.16200
H462        H  0.76487041  0.29088593  0.35943970     0.12100
H463        H  0.74580373  0.16706713  0.48947940     0.15000
H464        H  0.74595540  0.21812089  0.62302304     0.14800
C465        C  0.52769866  0.46550637  0.23818369    -0.18100
C466        C  0.47999372  0.46526116  0.21638376    -0.20300
C467        C  0.45450944  0.43886051  0.21235019     0.20400
C468        C  0.47739302  0.41248109  0.23064205    -0.03200
C469        C  0.52546651  0.41275106  0.25283898    -0.06300
C470        C  0.55076101  0.43937164  0.25643992     0.20600
C471        C  0.54826147  0.38632666  0.27100316     0.18800
C472        C  0.52271217  0.35998320  0.26738798    -0.17800
C473        C  0.47513924  0.35971972  0.24548255    -0.20000
C474        C  0.45228662  0.38578732  0.22679528     0.20300
C475        C  0.40464063  0.38559888  0.20484921    -0.33000
C476        C  0.38123248  0.41180121  0.18721464     0.01000
C477        C  0.40651604  0.43838465  0.19088621    -0.24300
C478        C  0.59881296  0.43929246  0.27739680    -0.28900
C479        C  0.62217078  0.41288332  0.29441363     0.06700
C480        C  0.59635142  0.38656517  0.29165003    -0.27600
H481        H  0.54661972  0.48615308  0.24059976     0.11400
H482        H  0.46305174  0.48572219  0.20261722     0.12500
H483        H  0.53960208  0.33952367  0.28123991     0.11600
H484        H  0.45621674  0.33907196  0.24304796     0.10800
H485        H  0.38547393  0.36503836  0.20279785     0.16200
H486        H  0.38877253  0.45871417  0.17765707     0.12100
H487        H  0.61826922  0.45972613  0.27913978     0.15000
H488        H  0.61385152  0.36612250  0.30462661     0.14800
C489        C  0.03034598  0.36120944  0.33377531    -0.18100
C490        C  0.07091548  0.35984914  0.31338084    -0.20300
C491        C  0.06791557  0.35857220  0.26125451     0.20400
C492        C  0.02353769  0.35797678  0.22935986    -0.03200
C493        C  0.98244891  0.35944604  0.25001471    -0.06300
C494        C  0.98594746  0.36132714  0.30246550     0.20600
C495        C  0.93802509  0.35994238  0.21817010     0.18800
C496        C  0.93508064  0.35814527  0.16601907    -0.17800
C497        C  0.97574817  0.35661729  0.14558417    -0.20000
C498        C  0.02022894  0.35692410  0.17685513     0.20300
C499        C  0.06134977  0.35744957  0.15658961    -0.33000
C500        C  0.10577897  0.35942534  0.18820361     0.01000
C501        C  0.10854606  0.35911935  0.24056220    -0.24300
C502        C  0.94517678  0.36415117  0.32271063    -0.28900
C503        C  0.90067316  0.36556085  0.29131270     0.06700
C504        C  0.89750138  0.36305331  0.23894785    -0.27600
H505        H  0.03374337  0.36266486  0.37409685     0.11400
H506        H  0.10472534  0.36033449  0.33841621     0.12500
H507        H  0.90129239  0.35839984  0.14092772     0.11600
H508        H  0.97239560  0.35578087  0.10521612     0.10800
H509        H  0.05860759  0.35789841  0.11626363     0.16200
H510        H  0.14239964  0.36061982  0.26540371     0.12100
H511        H  0.94829276  0.36637872  0.36291036     0.15000
H512        H  0.86355242  0.36421214  0.21421014     0.14800
C513        C  0.76727489  0.73813105  0.08013291    -0.18100
C514        C  0.77005387  0.71251017  0.05241088    -0.20300
C515        C  0.76870849  0.71402002  0.00052178     0.20400
C516        C  0.76511938  0.74153696  0.97627434    -0.03200
C517        C  0.76216826  0.76746269  0.00432514    -0.06300
C518        C  0.76296330  0.76573590  0.05648025     0.20600
C519        C  0.75779663  0.79501646  0.98009093     0.18800
C520        C  0.75745986  0.79651045  0.92833232    -0.17800
C521        C  0.76077045  0.77084051  0.90064134    -0.20000
C522        C  0.76421203  0.74313631  0.92406007     0.20300
C523        C  0.76712068  0.71708231  0.89645406    -0.33000
C524        C  0.77100029  0.68951983  0.92064536     0.01000
C525        C  0.77123714  0.68840919  0.97268262    -0.24300
C526        C  0.75836314  0.79150120  0.08385551    -0.28900
C527        C  0.75231006  0.81900471  0.05967430     0.06700
C528        C  0.75288573  0.82051745  0.00780682    -0.27600
H529        H  0.76805081  0.73631569  0.12004525     0.11400
H530        H  0.77310857  0.69145524  0.07158030     0.12500
H531        H  0.75430754  0.81755414  0.90915380     0.11600
H532        H  0.76030765  0.77266107  0.86078827     0.10800
H533        H  0.76742983  0.71830798  0.85668891     0.16200
H534        H  0.77407942  0.66740911  0.99207564     0.12100
H535        H  0.75781390  0.78999857  0.12354767     0.15000
H536        H  0.74855951  0.84156667  0.98862149     0.14800
C537        C  0.69820471  0.53556970  0.57946802    -0.18100
C538        C  0.69726780  0.51717285  0.53802222    -0.20300
C539        C  0.72684148  0.49250399  0.54136793     0.20400
C540        C  0.75645535  0.48568659  0.58740898    -0.03200
C541        C  0.75715926  0.50414623  0.62932775    -0.06300
C542        C  0.72856902  0.52956368  0.62508882     0.20600
C543        C  0.78731602  0.49754426  0.67507066     0.18800
C544        C  0.81554903  0.47223835  0.67906973    -0.17800
C545        C  0.81530775  0.45419287  0.63738791    -0.20000
C546        C  0.78655309  0.46102231  0.59113100     0.20300
C547        C  0.78879194  0.44438965  0.54811674    -0.33000
C548        C  0.76095520  0.45189986  0.50150078     0.01000
C549        C  0.72879135  0.47532741  0.49895130    -0.24300
C550        C  0.73116166  0.54861063  0.66632622    -0.28900
C551        C  0.76160868  0.54231257  0.71186589     0.06700
C552        C  0.78920531  0.51653577  0.71588177    -0.27600
H553        H  0.67565370  0.55475891  0.57559960     0.11400
H554        H  0.67413836  0.52263642  0.50296168     0.12500
H555        H  0.83856329  0.46673323  0.71419012     0.11600
H556        H  0.83828804  0.43520689  0.64109592     0.10800
H557        H  0.81340889  0.42627834  0.55053741     0.16200
H558        H  0.70723698  0.48138283  0.46322530     0.12100
H559        H  0.70917831  0.56805967  0.66317830     0.15000
H560        H  0.81264313  0.51127644  0.75088513     0.14800
C561        C  0.69506264  0.47728745  0.08163361    -0.18100
C562        C  0.69450200  0.49843024  0.04404727    -0.20300
C563        C  0.73296732  0.51717847  0.04494378     0.20400
C564        C  0.77285165  0.51420478  0.08335081    -0.03200
C565        C  0.77346001  0.49289005  0.12116231    -0.06300
C566        C  0.73408892  0.47460308  0.12071735     0.20600
C567        C  0.81292598  0.49050111  0.16022982     0.18800
C568        C  0.85204542  0.50850050  0.16024692    -0.17800
C569        C  0.85163315  0.52939720  0.12242194    -0.20000
C570        C  0.81199712  0.53267733  0.08423738     0.20300
C571        C  0.81121683  0.55370625  0.04637646    -0.33000
C572        C  0.77197520  0.55638225  0.00732161     0.01000
C573        C  0.73261396  0.53842619  0.00750118    -0.24300
C574        C  0.73361647  0.45505335  0.16066449    -0.28900
C575        C  0.77156050  0.45433011  0.20122861     0.06700
C576        C  0.81170646  0.47117375  0.19990230    -0.27600
H577        H  0.66465712  0.46340126  0.08061928     0.11400
H578        H  0.66381457  0.50026405  0.01443845     0.12500
H579        H  0.88265761  0.50674020  0.18996161     0.11600
H580        H  0.88213272  0.54319710  0.12330998     0.10800
H581        H  0.84200407  0.56709642  0.04618097     0.16200
H582        H  0.70245293  0.53998975  0.97717019     0.12100
H583        H  0.70260939  0.44209932  0.16198342     0.15000
H584        H  0.84114367  0.47028634  0.23118576     0.14800
C585        C  0.07007045  0.53255631  0.99524908    -0.18100
C586        C  0.03240207  0.54454004  0.96173957    -0.20300
C587        C  0.98736377  0.53288627  0.95849277     0.20400
C588        C  0.97985028  0.50920996  0.98966247    -0.03200
C589        C  0.01795663  0.49687405  0.02302454    -0.06300
C590        C  0.06323584  0.50854859  0.02544547     0.20600
C591        C  0.01107313  0.47228642  0.05260312     0.18800
C592        C  0.96568589  0.46126139  0.05046182    -0.17800
C593        C  0.92756374  0.47405555  0.01822652    -0.20000
C594        C  0.93442836  0.49770823  0.98710824     0.20300
C595        C  0.89667773  0.51045728  0.95412788    -0.33000
C596        C  0.90401188  0.53443522  0.92372707     0.01000
C597        C  0.94958528  0.54499210  0.92528272    -0.24300
C598        C  0.10144308  0.49491645  0.05559695    -0.28900
C599        C  0.09544366  0.46878432  0.08111671     0.06700
C600        C  0.05005697  0.45823910  0.08147074    -0.27600
H601        H  0.10473835  0.54160649  0.99667739     0.11400
H602        H  0.03850979  0.56287175  0.93824248     0.12500
H603        H  0.95978177  0.44250960  0.07314276     0.11600
H604        H  0.89282297  0.46517476  0.01707552     0.10800
H605        H  0.86146576  0.50254413  0.95372384     0.16200
H606        H  0.95546048  0.56362802  0.90225851     0.12100
H607        H  0.13633922  0.50316192  0.05528833     0.15000
H608        H  0.04533631  0.43816546  0.10157219     0.14800
C609        C  0.26421387  0.73468377  0.40010673    -0.18100
C610        C  0.26266596  0.70911007  0.42859341    -0.20300
C611        C  0.25987485  0.71095441  0.47953668     0.20400
C612        C  0.25879831  0.73871651  0.50214818    -0.03200
C613        C  0.25999170  0.76447774  0.47333867    -0.06300
C614        C  0.26291060  0.76252229  0.42207654     0.20600
C615        C  0.25851567  0.79219446  0.49599919     0.18800
C616        C  0.25591445  0.79406623  0.54691093    -0.17800
C617        C  0.25480882  0.76856186  0.57543950    -0.20000
C618        C  0.25603472  0.74077530  0.55344343     0.20300
C619        C  0.25297563  0.71507615  0.58142427    -0.33000
C620        C  0.25180973  0.68740400  0.55847328     0.01000
C621        C  0.25670891  0.68553847  0.50789026    -0.24300
C622        C  0.26579050  0.78841890  0.39425663    -0.28900
C623        C  0.26610843  0.81607251  0.41744509     0.06700
C624        C  0.26097423  0.81765666  0.46783257    -0.27600
H625        H  0.26652676  0.73268401  0.36095001     0.11400
H626        H  0.26342613  0.68786808  0.41070715     0.12500
H627        H  0.25495485  0.81530518  0.56476351     0.11600
H628        H  0.25263550  0.77057602  0.61463195     0.10800
H629        H  0.24910689  0.71668521  0.62020231     0.16200
H630        H  0.25634387  0.66422986  0.48991762     0.12100
H631        H  0.26986891  0.78702002  0.35553641     0.15000
H632        H  0.26062405  0.83889168  0.48592185     0.14800
C633        C  0.29676198  0.52083086  0.94771462    -0.18100
C634        C  0.29567519  0.54043392  0.90767425    -0.20300
C635        C  0.26172698  0.53748971  0.86368130     0.20400
C636        C  0.22821447  0.51469996  0.86033612    -0.03200
C637        C  0.22933007  0.49492071  0.90070541    -0.06300
C638        C  0.26391396  0.49793749  0.94449821     0.20600
C639        C  0.19585793  0.47213995  0.89719558     0.18800
C640        C  0.16165525  0.46930734  0.85339062    -0.17800
C641        C  0.16077021  0.48873653  0.81326885    -0.20000
C642        C  0.19397269  0.51137653  0.81637320     0.20300
C643        C  0.19433850  0.53016763  0.77564808    -0.33000
C644        C  0.22877004  0.55213043  0.77776922     0.01000
C645        C  0.26157471  0.55627619  0.82242473    -0.24300
C646        C  0.26459471  0.47831535  0.98460446    -0.28900
C647        C  0.23071183  0.45592277  0.98191449     0.06700
C648        C  0.19670434  0.45286870  0.93779371    -0.27600
H649        H  0.32341500  0.52354398  0.98122178     0.11400
H650        H  0.32166599  0.55774340  0.91095688     0.12500
H651        H  0.13565453  0.45199803  0.85009305     0.11600
H652        H  0.13429374  0.48592544  0.77964204     0.10800
H653        H  0.16862526  0.52701336  0.74146332     0.16200
H654        H  0.28831562  0.57304586  0.82417738     0.12100
H655        H  0.29055125  0.48119418  0.01866232     0.15000
H656        H  0.17021375  0.43589552  0.93544494     0.14800
C657        C  0.17738812  0.52042220  0.31523457    -0.18100
C658        C  0.18017256  0.54044611  0.35444860    -0.20300
C659        C  0.21409414  0.53691563  0.39822213     0.20400
C660        C  0.24588094  0.51312451  0.40250413    -0.03200
C661        C  0.24318631  0.49289556  0.36269122    -0.06300
C662        C  0.20859826  0.49662737  0.31915575     0.20600
C663        C  0.27492558  0.46903639  0.36636146     0.18800
C664        C  0.30895055  0.46568795  0.41033983    -0.17800
C665        C  0.31120732  0.48556304  0.45022688    -0.20000
C666        C  0.27979809  0.50935689  0.44669868     0.20300
C667        C  0.28064801  0.52894867  0.48694898    -0.33000
C668        C  0.24783214  0.55214043  0.48334080     0.01000
C669        C  0.21562994  0.55632162  0.43828247    -0.24300
C670        C  0.20610149  0.47685886  0.27965374    -0.28900
C671        C  0.23840402  0.45358877  0.28172369     0.06700
C672        C  0.27243655  0.44942438  0.32563313    -0.27600
H673        H  0.15081640  0.52356834  0.28176130     0.11400
H674        H  0.15549331  0.55856528  0.35070777     0.12500
H675        H  0.33371821  0.44763150  0.41398416     0.12400
H676        H  0.33745998  0.48226892  0.48391063     0.10800
H677        H  0.30531241  0.52529271  0.52175085     0.16200
H678        H  0.19011006  0.57396715  0.43510722     0.12100
H679        H  0.17950211  0.48023776  0.24622136     0.15000
H680        H  0.29777531  0.43177757  0.32736591     0.14800
C681        C  0.52052890  0.54722080  0.79525490    -0.18100
C682        C  0.47274806  0.54660133  0.77399322    -0.20300
C683        C  0.45171812  0.57022927  0.74461587     0.20400
C684        C  0.47899753  0.59493547  0.73720983    -0.03200
C685        C  0.52716078  0.59565032  0.75896991    -0.06300
C686        C  0.54808719  0.57155331  0.78777436     0.20600
C687        C  0.55439363  0.62036749  0.75157784     0.18800
C688        C  0.53334148  0.64409393  0.72249117    -0.17800
C689        C  0.48565378  0.64338042  0.70093468    -0.20000
C690        C  0.45818888  0.61893143  0.70808155     0.20300
C691        C  0.41024440  0.61815075  0.68692250    -0.33000
C692        C  0.38274413  0.59360359  0.69412295     0.01000
C693        C  0.40386668  0.56965569  0.72282130    -0.24300
C694        C  0.59627011  0.57205242  0.80801355    -0.28900
C695        C  0.62371109  0.59652324  0.80046116     0.06700
C696        C  0.60232159  0.62075893  0.77274807    -0.27600
H697        H  0.53597858  0.52858994  0.81744159     0.11400
H698        H  0.45226857  0.52755315  0.78033646     0.12500
H699        H  0.55379324  0.66318335  0.71630122     0.11600
H700        H  0.47023252  0.66198668  0.67864984     0.10800
H701        H  0.39423856  0.63676165  0.66500978     0.16200
H702        H  0.38282627  0.55086426  0.72921274     0.12100
H703        H  0.61251885  0.55327772  0.82925039     0.15000
H704        H  0.62329195  0.63954414  0.76618128     0.14800
C705        C  0.07022983  0.64621927  0.80640208    -0.18100
C706        C  0.02999578  0.64552507  0.82731766    -0.20300
C707        C  0.98562244  0.64292527  0.79651122     0.20400
C708        C  0.98176891  0.64104983  0.74399226    -0.03200
C709        C  0.02250005  0.64185405  0.72279554    -0.06300
C710        C  0.06683605  0.64442167  0.75428250     0.20600
C711        C  0.01895272  0.63954715  0.67034104     0.18800
C712        C  0.97449786  0.63644873  0.63963968    -0.17800
C713        C  0.93411960  0.63563895  0.66064867    -0.20000
C714        C  0.93738043  0.63784674  0.71279042     0.20300
C715        C  0.89724132  0.63620645  0.73439412    -0.33000
C716        C  0.90086358  0.63765531  0.78689783     0.01000
C717        C  0.94524376  0.64145450  0.81751297    -0.24300
C718        C  0.10720575  0.64447077  0.73338282    -0.28900
C719        C  0.10441717  0.64177873  0.68125592     0.06700
C720        C  0.05995487  0.63965269  0.64980889    -0.27600
H721        H  0.10411259  0.64799408  0.83108836     0.11400
H722        H  0.03363270  0.64678395  0.86768876     0.12500
H723        H  0.97096127  0.63443625  0.59936931     0.11600
H724        H  0.90032569  0.63304046  0.63609966     0.10800
H725        H  0.86329252  0.63309443  0.71035488     0.16200
H726        H  0.94861398  0.64222844  0.85791451     0.12100
H727        H  0.14115574  0.64579948  0.75811350     0.15000
H728        H  0.05736064  0.63685618  0.60977404     0.14800
C729        C  0.07269884  0.48101688  0.45838921    -0.18100
C730        C  0.03344940  0.46860598  0.42767870    -0.20300
C731        C  0.98856477  0.47992133  0.42763601     0.20400
C732        C  0.98322706  0.50477732  0.45696241    -0.03200
C733        C  0.02274539  0.51717267  0.48811327    -0.06300
C734        C  0.06759667  0.50483917  0.48964320     0.20600
C735        C  0.01715958  0.54138433  0.51872216     0.18800
C736        C  0.97262461  0.55375832  0.51655647    -0.17800
C737        C  0.93338609  0.54131023  0.48596767    -0.20000
C738        C  0.93819187  0.51643225  0.45691143     0.20300
C739        C  0.89863934  0.50197109  0.43020488    -0.33000
C740        C  0.90369602  0.47578765  0.40436799     0.01000
C741        C  0.94876729  0.46577307  0.40112572    -0.24300
C742        C  0.10644327  0.51649018  0.52249416    -0.28900
C743        C  0.10088989  0.54034394  0.55361576     0.06700
C744        C  0.05614175  0.55271846  0.55124859    -0.27600
H745        H  0.10691222  0.47157122  0.45851606     0.11400
H746        H  0.03806152  0.44964734  0.40498912     0.12500
H747        H  0.96800424  0.57264572  0.53939752     0.11600
H748        H  0.89914614  0.55066465  0.48606012     0.10800
H749        H  0.86399006  0.50985233  0.43268223     0.16200
H750        H  0.95287229  0.44580145  0.38060831     0.12100
H751        H  0.14105050  0.50754386  0.52284982     0.15000
H752        H  0.05169250  0.57155989  0.57432218     0.14800
loop_ 
_geom_bond_atom_site_label_1 
_geom_bond_atom_site_label_2 
_geom_bond_distance 
_geom_bond_site_symmetry_2 
_ccdc_geom_bond_type 
O1          Cr19   1.962       .  S
O1            C9   1.256       .  A
O2          Cr19   2.036       .  S
O2            C3   1.273       .  A
C3            O4   1.257       .  A
C3          C644   1.477       .  S
O4          Cr20   1.953       .  S
O5          Cr20   2.038       .  S
O5            C6   1.269       .  A
C6            O7   1.249       .  A
C6          C743   1.473       .  S
O7          Cr21   1.944       .  S
O8          Cr21   2.023       .  S
O8            C9   1.269       .  A
C9          C719   1.489       .  S
O10         Cr19   2.040       .  S
O10          C18   1.274       .  A
O11         Cr19   1.968       .  S
O11          C12   1.260       .  A
C12          O13   1.272       .  A
C12         C692   1.483       .  S
O13         Cr20   2.031       .  S
O14         Cr20   1.969       .  S
O14          C15   1.260       .  A
C15          O16   1.273       .  A
C15         C668   1.481       .  S
O16         Cr21   2.021       .  S
O17         Cr21   1.943       .  S
O17          C18   1.253       .  A
C18         C620   1.479       .  S
Cr19         O22   1.766       .  S
Cr20         O22   1.764       .  S
Cr21         O22   1.754       .  S
O23         Cr41   1.973       .  S
O23          C31   1.256       .  A
O24         Cr41   2.049       .  S
O24          C25   1.277       .  A
C25          O26   1.256       .  A
C25         C551   1.483       .  S
O26         Cr42   1.944       .  S
O27         Cr42   2.020       .  S
O27          C28   1.267       .  A
C28          O29   1.255       .  A
C28         C596   1.469       .  S
O29         Cr43   1.954       .  S
O30         Cr43   2.016       .  S
O30          C31   1.267       .  A
C31         C716   1.488       .  S
O32         Cr41   2.063       .  S
O32          C40   1.280       .  A
O33         Cr41   1.972       .  S
O33          C34   1.260       .  A
C34          O35   1.267       .  A
C34         C695   1.481       .  S
O35         Cr42   2.012       .  S
O36         Cr42   1.962       .  S
O36          C37   1.258       .  A
C37          O38   1.269       .  A
C37         C572   1.475   1_556  S
O38         Cr43   2.021       .  S
O39         Cr43   1.938       .  S
O39          C40   1.254       .  A
C40         C524   1.492       .  S
Cr41         O44   1.767       .  S
Cr42         O44   1.763       .  S
Cr43         O44   1.760       .  S
O45         Cr63   2.035       .  S
O45          C53   1.273       .  A
O46         Cr63   1.984       .  S
O46          C47   1.263       .  A
C47          O48   1.268       .  A
C47         C479   1.487       .  S
O48         Cr64   2.014       .  S
O49         Cr64   1.969       .  S
O49          C50   1.261       .  A
C50          O51   1.273       .  A
C50         C548   1.485       .  S
O51         Cr65   2.031       .  S
O52         Cr65   1.954       .  S
O52          C53   1.257       .  A
C53         C452   1.484       .  S
O54         Cr63   1.981       .  S
O54          C62   1.259       .  A
O55         Cr63   2.023       .  S
O55          C56   1.269       .  A
C56          O57   1.257       .  A
C56         C575   1.464       .  S
O57         Cr64   1.951       .  S
O58         Cr64   2.018       .  S
O58          C59   1.265       .  A
C59          O60   1.254       .  A
C59         C740   1.474       .  S
O60         Cr65   1.961       .  S
O61         Cr65   2.022       .  S
O61          C62   1.269       .  A
C62         C503   1.495       .  S
Cr63         O66   1.773       .  S
Cr64         O66   1.766       .  S
Cr65         O66   1.759       .  S
O67         Cr85   2.048       .  S
O67          C75   1.278       .  A
O68         Cr85   1.966       .  S
O68          C69   1.259       .  A
C69          O70   1.267       .  A
C69         C476   1.482       .  S
O70         Cr86   2.016       .  S
O71         Cr86   1.968       .  S
O71          C72   1.260       .  A
C72          O73   1.270       .  A
C72         C647   1.484   1_554  S
O73         Cr87   2.026       .  S
O74         Cr87   1.953       .  S
O74          C75   1.258       .  A
C75         C428   1.492       .  S
O76         Cr85   1.977       .  S
O76          C84   1.258       .  A
O77         Cr85   2.049       .  S
O77          C78   1.273       .  A
C78          O79   1.254       .  A
C78         C671   1.483       .  S
O79         Cr86   1.939       .  S
O80         Cr86   2.005       .  S
O80          C81   1.267       .  A
C81          O82   1.255       .  A
C81         C599   1.466       .  S
O82         Cr87   1.963       .  S
O83         Cr87   2.018       .  S
O83          C84   1.266       .  A
C84         C500   1.493       .  S
Cr85         O88   1.769       .  S
Cr86         O88   1.761       .  S
Cr87         O88   1.766       .  S
O89        Cr107   2.050       .  S
O89          C97   1.277       .  A
O90        Cr107   1.970       .  S
O90          C91   1.260       .  A
C91          O92   1.271       .  A
C91         C407   1.488       .  S
O92        Cr108   2.028       .  S
O93        Cr108   1.975       .  S
O93          C94   1.262       .  A
C94          O95   1.270       .  A
C94         C332   1.483   1_554  S
O95        Cr109   2.018       .  S
O96        Cr109   1.956       .  S
O96          C97   1.256       .  A
C97         C527   1.491       .  S
O98        Cr107   1.972       .  S
O98         C106   1.256       .  A
O99        Cr107   2.044       .  S
O99         C100   1.274       .  A
C100        O101   1.256       .  A
C100        C356   1.478       .  S
O101       Cr108   1.955       .  S
O102       Cr108   2.018       .  S
O102        C103   1.268       .  A
C103        O104   1.255       .  A
C103        C308   1.472       .  S
O104       Cr109   1.966       .  S
O105       Cr109   2.011       .  S
O105        C106   1.267       .  A
C106        C380   1.482       .  S
Cr107       O110   1.769       .  S
Cr108       O110   1.763       .  S
Cr109       O110   1.762       .  S
O111       Cr129   2.036       .  S
O111        C119   1.272       .  A
O112       Cr129   1.974       .  S
O112        C113   1.262       .  A
C113        O114   1.271       .  A
C113        C404   1.489       .  S
O114       Cr130   2.025       .  S
O115       Cr130   1.966       .  S
O115        C116   1.260       .  A
C116        O117   1.270       .  A
C116        C263   1.483       .  S
O117       Cr131   2.027       .  S
O118       Cr131   1.947       .  S
O118        C119   1.255       .  A
C119        C623   1.479       .  S
O120       Cr129   1.966       .  S
O120        C128   1.259       .  A
O121       Cr129   2.035       .  S
O121        C122   1.270       .  A
C122        O123   1.256       .  A
C122        C284   1.478       .  S
O123       Cr130   1.954       .  S
O124       Cr130   2.018       .  S
O124        C125   1.268       .  A
C125        O126   1.255       .  A
C125        C236   1.472       .  S
O126       Cr131   1.959       .  S
O127       Cr131   2.022       .  S
O127        C128   1.268       .  A
C128        C383   1.488       .  S
Cr129       O132   1.771       .  S
Cr130       O132   1.760       .  S
Cr131       O132   1.764       .  S
O133       Cr151   1.958       .  S
O133        C141   1.255       .  A
O134       Cr151   2.049       .  S
O134        C135   1.277       .  A
C135        O136   1.257       .  A
C135        C260   1.486       .  S
O136       Cr152   1.950       .  S
O137       Cr152   2.019       .  S
O137        C138   1.265       .  A
C138        O139   1.254       .  A
C138        C311   1.470       .  S
O139       Cr153   1.959       .  S
O140       Cr153   2.013       .  S
O140        C141   1.267       .  A
C141        C191   1.479       .  S
O142       Cr151   2.059       .  S
O142        C150   1.277       .  A
O143       Cr151   1.973       .  S
O143        C144   1.261       .  A
C144        O145   1.267       .  A
C144        C212   1.478       .  S
O145       Cr152   2.009       .  S
O146       Cr152   1.966       .  S
O146        C147   1.260       .  A
C147        O148   1.272       .  A
C147        C287   1.479   1_556  S
O148       Cr153   2.018       .  S
O149       Cr153   1.945       .  S
O149        C150   1.255       .  A
C150        C431   1.495       .  S
Cr151       O154   1.769       .  S
Cr152       O154   1.763       .  S
Cr153       O154   1.754       .  S
O155       Cr173   1.960       .  S
O155        C163   1.255       .  A
O156       Cr173   2.040       .  S
O156        C157   1.273       .  A
C157        O158   1.255       .  A
C157        C335   1.475       .  S
O158       Cr174   1.952       .  S
O159       Cr174   2.009       .  S
O159        C160   1.265       .  A
C160        O161   1.255       .  A
C160        C239   1.468       .  S
O161       Cr175   1.962       .  S
O162       Cr175   2.012       .  S
O162        C163   1.265       .  A
C163        C188   1.478       .  S
O164       Cr173   2.047       .  S
O164        C172   1.277       .  A
O165       Cr173   1.966       .  S
O165        C166   1.260       .  A
C166        O167   1.269       .  A
C166        C215   1.479       .  S
O167       Cr174   2.015       .  S
O168       Cr174   1.976       .  S
O168        C169   1.263       .  A
C169        O170   1.270       .  A
C169        C359   1.485       .  S
O170       Cr175   2.017       .  S
O171       Cr175   1.952       .  S
O171        C172   1.257       .  A
C172        C455   1.487       .  S
Cr173       O176   1.771       .  S
Cr174       O176   1.763       .  S
Cr175       O176   1.761       .  S
C177        C178   1.399       .  A
C177        C182   1.404       .  A
C177        H193   1.083       .  S
C178        C179   1.403       .  A
C178        H194   1.084       .  S
C179        C189   1.404       .  A
C179        C180   1.413       .  A
C180        C186   1.410       .  A
C180        C181   1.411       .  A
C181        C183   1.413       .  A
C181        C182   1.410       .  A
C182        C190   1.401       .  A
C183        C192   1.403       .  A
C183        C184   1.403       .  A
C184        C185   1.398       .  A
C184        H195   1.083       .  S
C185        C186   1.404       .  A
C185        H196   1.084       .  S
C186        C187   1.400       .  A
C187        C188   1.408       .  A
C187        H197   1.084       .  S
C188        C189   1.406       .  A
C189        H198   1.084       .  S
C190        C191   1.409       .  A
C190        H199   1.084       .  S
C191        C192   1.405       .  A
C192        H200   1.084       .  S
C201        C202   1.398   1_655  A
C201        C206   1.403       .  A
C201        H217   1.083       .  S
C202        C203   1.403       .  A
C202        H218   1.084       .  S
C203        C213   1.400       .  A
C203        C204   1.411       .  A
C204        C210   1.412       .  A
C204        C205   1.410   1_455  A
C205        C207   1.411       .  A
C205        C206   1.412       .  A
C206        C214   1.402       .  A
C207        C216   1.401       .  A
C207        C208   1.404       .  A
C208        C209   1.398   1_655  A
C208        H219   1.084       .  S
C209        C210   1.403       .  A
C209        H220   1.083       .  S
C210        C211   1.402       .  A
C211        C212   1.406       .  A
C211        H221   1.084       .  S
C212        C213   1.407       .  A
C213        H222   1.085       .  S
C214        C215   1.406       .  A
C214        H223   1.084       .  S
C215        C216   1.407       .  A
C216        H224   1.085       .  S
C225        C226   1.396       .  A
C225        C230   1.402       .  A
C225        H241   1.084       .  S
C226        C227   1.403       .  A
C226        H242   1.084       .  S
C227        C237   1.398   1_545  A
C227        C228   1.411   1_545  A
C228        C234   1.411       .  A
C228        C229   1.407   1_565  A
C229        C231   1.411   1_545  A
C229        C230   1.412       .  A
C230        C238   1.398       .  A
C231        C240   1.398   1_565  A
C231        C232   1.403       .  A
C232        C233   1.397       .  A
C232        H243   1.083       .  S
C233        C234   1.403       .  A
C233        H244   1.084       .  S
C234        C235   1.399       .  A
C235        C236   1.407       .  A
C235        H245   1.085       .  S
C236        C237   1.405       .  A
C237        H246   1.084   1_565  S
C238        C239   1.405       .  A
C238        H247   1.085       .  S
C239        C240   1.405       .  A
C240        H248   1.084       .  S
C249        C250   1.399       .  A
C249        C254   1.403       .  A
C249        H265   1.084       .  S
C250        C251   1.405   1_565  A
C250        H266   1.084       .  S
C251        C261   1.399       .  A
C251        C252   1.408       .  A
C252        C258   1.415       .  A
C252        C253   1.413   1_545  A
C253        C255   1.409       .  A
C253        C254   1.414       .  A
C254        C262   1.406       .  A
C255        C264   1.403       .  A
C255        C256   1.404   1_565  A
C256        C257   1.400       .  A
C256        H267   1.084       .  S
C257        C258   1.403       .  A
C257        H268   1.083       .  S
C258        C259   1.409       .  A
C259        C260   1.406       .  A
C259        H269   1.084       .  S
C260        C261   1.412       .  A
C261        H270   1.084       .  S
C262        C263   1.407       .  A
C262        H271   1.084       .  S
C263        C264   1.409       .  A
C264        H272   1.084       .  S
C273        C274   1.395       .  A
C273        C278   1.401       .  A
C273        H289   1.084       .  S
C274        C275   1.402   1_545  A
C274        H290   1.084       .  S
C275        C285   1.396       .  A
C275        C276   1.409       .  A
C276        C282   1.414       .  A
C276        C277   1.411   1_565  A
C277        C279   1.410       .  A
C277        C278   1.412       .  A
C278        C286   1.398       .  A
C279        C288   1.405       .  A
C279        C280   1.405   1_545  A
C280        C281   1.402       .  A
C280        H291   1.083       .  S
C281        C282   1.404       .  A
C281        H292   1.083       .  S
C282        C283   1.409       .  A
C283        C284   1.407       .  A
C283        H293   1.084       .  S
C284        C285   1.406       .  A
C285        H294   1.085       .  S
C286        C287   1.405       .  A
C286        H295   1.084       .  S
C287        C288   1.410       .  A
C288        H296   1.084   1_554  S
C297        C298   1.400       .  A
C297        C302   1.404   1_554  A
C297        H313   1.083       .  S
C298        C299   1.405       .  A
C298        H314   1.084       .  S
C299        C309   1.404       .  A
C299        C300   1.412       .  A
C300        C306   1.411   1_565  A
C300        C301   1.408   1_564  A
C301        C303   1.412       .  A
C301        C302   1.412   1_545  A
C302        C310   1.403   1_565  A
C303        C312   1.396       .  A
C303        C304   1.401       .  A
C304        C305   1.394       .  A
C304        H315   1.088       .  S
C305        C306   1.402   1_556  A
C305        H316   1.081       .  S
C306        C307   1.396   1_545  A
C307        C308   1.403       .  A
C307        H317   1.083       .  S
C308        C309   1.408       .  A
C309        H318   1.085       .  S
C310        C311   1.407       .  A
C310        H319   1.084       .  S
C311        C312   1.403       .  A
C312        H320   1.088       .  S
C321        C322   1.397       .  A
C321        C326   1.404   1_565  A
C321        H337   1.083       .  S
C322        C323   1.403       .  A
C322        H338   1.085       .  S
C323        C333   1.401       .  A
C323        C324   1.412       .  A
C324        C330   1.411       .  A
C324        C325   1.412   1_565  A
C325        C327   1.414       .  A
C325        C326   1.410       .  A
C326        C334   1.399       .  A
C327        C336   1.407       .  A
C327        C328   1.403       .  A
C328        C329   1.401       .  A
C328        H339   1.086       .  S
C329        C330   1.405   1_545  A
C329        H340   1.081       .  S
C330        C331   1.405       .  A
C331        C332   1.409       .  A
C331        H341   1.083   1_556  S
C332        C333   1.408       .  A
C333        H342   1.085       .  S
C334        C335   1.408       .  A
C334        H343   1.084       .  S
C335        C336   1.404       .  A
C336        H344   1.086       .  S
C345        C346   1.402       .  A
C345        C350   1.405   1_565  A
C345        H361   1.084   1_565  S
C346        C347   1.404       .  A
C346        H362   1.083       .  S
C347        C357   1.410       .  A
C347        C348   1.413       .  A
C348        C354   1.410       .  A
C348        C349   1.414   1_565  A
C349        C351   1.411       .  A
C349        C350   1.411       .  A
C350        C358   1.407       .  A
C351        C360   1.401       .  A
C351        C352   1.403       .  A
C352        C353   1.397       .  A
C352        H363   1.084       .  S
C353        C354   1.403   1_545  A
C353        H364   1.084       .  S
C354        C355   1.400       .  A
C355        C356   1.407       .  A
C355        H365   1.085       .  S
C356        C357   1.406       .  A
C357        H366   1.084       .  S
C358        C359   1.409       .  A
C358        H367   1.084       .  S
C359        C360   1.409       .  A
C360        H368   1.084       .  S
C369        C370   1.397       .  A
C369        C374   1.403       .  A
C369        H385   1.084       .  S
C370        C371   1.402       .  A
C370        H386   1.084       .  S
C371        C381   1.402       .  A
C371        C372   1.412       .  A
C372        C378   1.411       .  A
C372        C373   1.414       .  A
C373        C375   1.413       .  A
C373        C374   1.409       .  A
C374        C382   1.399       .  A
C375        C384   1.411       .  A
C375        C376   1.405       .  A
C376        C377   1.403       .  A
C376        H387   1.083       .  S
C377        C378   1.405       .  A
C377        H388   1.083       .  S
C378        C379   1.408       .  A
C379        C380   1.410       .  A
C379        H389   1.084       .  S
C380        C381   1.405       .  A
C381        H390   1.084       .  S
C382        C383   1.408       .  A
C382        H391   1.084       .  S
C383        C384   1.410       .  A
C384        H392   1.083       .  S
C393        C394   1.398   1_655  A
C393        C398   1.403       .  A
C393        H409   1.083       .  S
C394        C395   1.403       .  A
C394        H410   1.084       .  S
C395        C405   1.404       .  A
C395        C396   1.411       .  A
C396        C402   1.411       .  A
C396        C397   1.415   1_455  A
C397        C399   1.412       .  A
C397        C398   1.410       .  A
C398        C406   1.403       .  A
C399        C408   1.408       .  A
C399        C400   1.405       .  A
C400        C401   1.402   1_655  A
C400        H411   1.083       .  S
C401        C402   1.405       .  A
C401        H412   1.084       .  S
C402        C403   1.408       .  A
C403        C404   1.410       .  A
C403        H413   1.084       .  S
C404        C405   1.409       .  A
C405        H414   1.084       .  S
C406        C407   1.409       .  A
C406        H415   1.084       .  S
C407        C408   1.410       .  A
C408        H416   1.084       .  S
C417        C418   1.399       .  A
C417        C422   1.405   1_554  A
C417        H433   1.083       .  S
C418        C419   1.402       .  A
C418        H434   1.084       .  S
C419        C429   1.409       .  A
C419        C420   1.416   1_554  A
C420        C426   1.406       .  A
C420        C421   1.416       .  A
C421        C423   1.416       .  A
C421        C422   1.405       .  A
C422        C430   1.399       .  A
C423        C432   1.415       .  A
C423        C424   1.404       .  A
C424        C425   1.402       .  A
C424        H435   1.084       .  S
C425        C426   1.406       .  A
C425        H436   1.083       .  S
C426        C427   1.404   1_556  A
C427        C428   1.415       .  A
C427        H437   1.084   1_554  S
C428        C429   1.406       .  A
C429        H438   1.084       .  S
C430        C431   1.414       .  A
C430        H439   1.084       .  S
C431        C432   1.409       .  A
C432        H440   1.084       .  S
C441        C442   1.401       .  A
C441        C446   1.405       .  A
C441        H457   1.083       .  S
C442        C443   1.403       .  A
C442        H458   1.084       .  S
C443        C453   1.409       .  A
C443        C444   1.414       .  A
C444        C450   1.408       .  A
C444        C445   1.414       .  A
C445        C447   1.414       .  A
C445        C446   1.408       .  A
C446        C454   1.403       .  A
C447        C456   1.407       .  A
C447        C448   1.403       .  A
C448        C449   1.399       .  A
C448        H459   1.084       .  S
C449        C450   1.404       .  A
C449        H460   1.083       .  S
C450        C451   1.400       .  A
C451        C452   1.410       .  A
C451        H461   1.084       .  S
C452        C453   1.407       .  A
C453        H462   1.084       .  S
C454        C455   1.412       .  A
C454        H463   1.084       .  S
C455        C456   1.405       .  A
C456        H464   1.084       .  S
C465        C466   1.401       .  A
C465        C470   1.405       .  A
C465        H481   1.084       .  S
C466        C467   1.404       .  A
C466        H482   1.083       .  S
C467        C477   1.406       .  A
C467        C468   1.412       .  A
C468        C474   1.410       .  A
C468        C469   1.413       .  A
C469        C471   1.412       .  A
C469        C470   1.410       .  A
C470        C478   1.405       .  A
C471        C480   1.404       .  A
C471        C472   1.403       .  A
C472        C473   1.398       .  A
C472        H483   1.083       .  S
C473        C474   1.403       .  A
C473        H484   1.084       .  S
C474        C475   1.400       .  A
C475        C476   1.407       .  A
C475        H485   1.084       .  S
C476        C477   1.408       .  A
C477        H486   1.084       .  S
C478        C479   1.411       .  A
C478        H487   1.084       .  S
C479        C480   1.407       .  A
C480        H488   1.084       .  S
C489        C490   1.400       .  A
C489        C494   1.403   1_455  A
C489        H505   1.083       .  S
C490        C491   1.404       .  A
C490        H506   1.083       .  S
C491        C501   1.405       .  A
C491        C492   1.410       .  A
C492        C498   1.413       .  A
C492        C493   1.418   1_455  A
C493        C495   1.410       .  A
C493        C494   1.412       .  A
C494        C502   1.407       .  A
C495        C504   1.410       .  A
C495        C496   1.406       .  A
C496        C497   1.403       .  A
C496        H507   1.083       .  S
C497        C498   1.405   1_655  A
C497        H508   1.083       .  S
C498        C499   1.411       .  A
C499        C500   1.411       .  A
C499        H509   1.084       .  S
C500        C501   1.410       .  A
C501        H510   1.084       .  S
C502        C503   1.408       .  A
C502        H511   1.084       .  S
C503        C504   1.413       .  A
C504        H512   1.084       .  S
C513        C514   1.399       .  A
C513        C518   1.402       .  A
C513        H529   1.084       .  S
C514        C515   1.405       .  A
C514        H530   1.083       .  S
C515        C525   1.399   1_554  A
C515        C516   1.406   1_554  A
C516        C522   1.416       .  A
C516        C517   1.416   1_556  A
C517        C519   1.407   1_554  A
C517        C518   1.415       .  A
C518        C526   1.408       .  A
C519        C528   1.405   1_556  A
C519        C520   1.406       .  A
C520        C521   1.403       .  A
C520        H531   1.083       .  S
C521        C522   1.404       .  A
C521        H532   1.084       .  S
C522        C523   1.414       .  A
C523        C524   1.407       .  A
C523        H533   1.084       .  S
C524        C525   1.414       .  A
C525        H534   1.084       .  S
C526        C527   1.405       .  A
C526        H535   1.084       .  S
C527        C528   1.415       .  A
C528        H536   1.084   1_554  S
C537        C538   1.400       .  A
C537        C542   1.403       .  A
C537        H553   1.084       .  S
C538        C539   1.405       .  A
C538        H554   1.083       .  S
C539        C549   1.404       .  A
C539        C540   1.409       .  A
C540        C546   1.413       .  A
C540        C541   1.413       .  A
C541        C543   1.408       .  A
C541        C542   1.414       .  A
C542        C550   1.408       .  A
C543        C552   1.400       .  A
C543        C544   1.404       .  A
C544        C545   1.399       .  A
C544        H555   1.084       .  S
C545        C546   1.403       .  A
C545        H556   1.084       .  S
C546        C547   1.406       .  A
C547        C548   1.407       .  A
C547        H557   1.084       .  S
C548        C549   1.410       .  A
C549        H558   1.084       .  S
C550        C551   1.405       .  A
C550        H559   1.084       .  S
C551        C552   1.412       .  A
C552        H560   1.084       .  S
C561        C562   1.398       .  A
C561        C566   1.402       .  A
C561        H577   1.083       .  S
C562        C563   1.404       .  A
C562        H578   1.084       .  S
C563        C573   1.400       .  A
C563        C564   1.410       .  A
C564        C570   1.412       .  A
C564        C565   1.408       .  A
C565        C567   1.410       .  A
C565        C566   1.414       .  A
C566        C574   1.403       .  A
C567        C576   1.395       .  A
C567        C568   1.402       .  A
C568        C569   1.396       .  A
C568        H579   1.084       .  S
C569        C570   1.403       .  A
C569        H580   1.084       .  S
C570        C571   1.399       .  A
C571        C572   1.406       .  A
C571        H581   1.084       .  S
C572        C573   1.408       .  A
C573        H582   1.084   1_554  S
C574        C575   1.402       .  A
C574        H583   1.084       .  S
C575        C576   1.404       .  A
C576        H584   1.085       .  S
C585        C586   1.393       .  A
C585        C590   1.401   1_556  A
C585        H601   1.084       .  S
C586        C587   1.401   1_455  A
C586        H602   1.084       .  S
C587        C597   1.393       .  A
C587        C588   1.411       .  A
C588        C594   1.411       .  A
C588        C589   1.405   1_656  A
C589        C591   1.411       .  A
C589        C590   1.411       .  A
C590        C598   1.392       .  A
C591        C600   1.401       .  A
C591        C592   1.404   1_455  A
C592        C593   1.399       .  A
C592        H603   1.083       .  S
C593        C594   1.404   1_554  A
C593        H604   1.084       .  S
C594        C595   1.401       .  A
C595        C596   1.407       .  A
C595        H605   1.085       .  S
C596        C597   1.404       .  A
C597        H606   1.085       .  S
C598        C599   1.401       .  A
C598        H607   1.085       .  S
C599        C600   1.408       .  A
C600        H608   1.084       .  S
C609        C610   1.400       .  A
C609        C614   1.403       .  A
C609        H625   1.083       .  S
C610        C611   1.405       .  A
C610        H626   1.084       .  S
C611        C621   1.400       .  A
C611        C612   1.407       .  A
C612        C618   1.415       .  A
C612        C613   1.411       .  A
C613        C615   1.407       .  A
C613        C614   1.415       .  A
C614        C622   1.408       .  A
C615        C624   1.395       .  A
C615        C616   1.403       .  A
C616        C617   1.396       .  A
C616        H627   1.084       .  S
C617        C618   1.401       .  A
C617        H628   1.083       .  S
C618        C619   1.404       .  A
C619        C620   1.402       .  A
C619        H629   1.084       .  S
C620        C621   1.412       .  A
C621        H630   1.084       .  S
C622        C623   1.406       .  A
C622        H631   1.084       .  S
C623        C624   1.408       .  A
C624        H632   1.085       .  S
C633        C634   1.400       .  A
C633        C638   1.405       .  A
C633        H649   1.084       .  S
C634        C635   1.403       .  A
C634        H650   1.083       .  S
C635        C645   1.407       .  A
C635        C636   1.414       .  A
C636        C642   1.409       .  A
C636        C637   1.412       .  A
C637        C639   1.413       .  A
C637        C638   1.410       .  A
C638        C646   1.404       .  A
C639        C648   1.403       .  A
C639        C640   1.403       .  A
C640        C641   1.398       .  A
C640        H651   1.084       .  S
C641        C642   1.403       .  A
C641        H652   1.084       .  S
C642        C643   1.398       .  A
C643        C644   1.408       .  A
C643        H653   1.085       .  S
C644        C645   1.405       .  A
C645        H654   1.084       .  S
C646        C647   1.410       .  A
C646        H655   1.084   1_556  S
C647        C648   1.407       .  A
C648        H656   1.084       .  S
C657        C658   1.393       .  A
C657        C662   1.402       .  A
C657        H673   1.083       .  S
C658        C659   1.400       .  A
C658        H674   1.084       .  S
C659        C669   1.397       .  A
C659        C660   1.412       .  A
C660        C666   1.410       .  A
C660        C661   1.412       .  A
C661        C663   1.415       .  A
C661        C662   1.408       .  A
C662        C670   1.392       .  A
C663        C672   1.414       .  A
C663        C664   1.405       .  A
C664        C665   1.404       .  A
C664        H675   1.083       .  S
C665        C666   1.406       .  A
C665        H676   1.083       .  S
C666        C667   1.408       .  A
C667        C668   1.412       .  A
C667        H677   1.084       .  S
C668        C669   1.403       .  A
C669        H678   1.084       .  S
C670        C671   1.408       .  A
C670        H679   1.085       .  S
C671        C672   1.408       .  A
C672        H680   1.084       .  S
C681        C682   1.400       .  A
C681        C686   1.404       .  A
C681        H697   1.084       .  S
C682        C683   1.404       .  A
C682        H698   1.083       .  S
C683        C693   1.405       .  A
C683        C684   1.412       .  A
C684        C690   1.411       .  A
C684        C685   1.413       .  A
C685        C687   1.411       .  A
C685        C686   1.412       .  A
C686        C694   1.404       .  A
C687        C696   1.403       .  A
C687        C688   1.404       .  A
C688        C689   1.399       .  A
C688        H699   1.083       .  S
C689        C690   1.404       .  A
C689        H700   1.084       .  S
C690        C691   1.404       .  A
C691        C692   1.408       .  A
C691        H701   1.085       .  S
C692        C693   1.407       .  A
C693        H702   1.084       .  S
C694        C695   1.407       .  A
C694        H703   1.084       .  S
C695        C696   1.408       .  A
C696        H704   1.084       .  S
C705        C706   1.398       .  A
C705        C710   1.403       .  A
C705        H721   1.084       .  S
C706        C707   1.402   1_455  A
C706        H722   1.083       .  S
C707        C717   1.404       .  A
C707        C708   1.413       .  A
C708        C714   1.410       .  A
C708        C709   1.415   1_655  A
C709        C711   1.414       .  A
C709        C710   1.409       .  A
C710        C718   1.401       .  A
C711        C720   1.412       .  A
C711        C712   1.405   1_455  A
C712        C713   1.403       .  A
C712        H723   1.083       .  S
C713        C714   1.406       .  A
C713        H724   1.083       .  S
C714        C715   1.407       .  A
C715        C716   1.412       .  A
C715        H725   1.084       .  S
C716        C717   1.406       .  A
C717        H726   1.084       .  S
C718        C719   1.409       .  A
C718        H727   1.084       .  S
C719        C720   1.410       .  A
C720        H728   1.084       .  S
C729        C730   1.398       .  A
C729        C734   1.403       .  A
C729        H745   1.084       .  S
C730        C731   1.404   1_455  A
C730        H746   1.084       .  S
C731        C741   1.398       .  A
C731        C732   1.409       .  A
C732        C738   1.413       .  A
C732        C733   1.409   1_655  A
C733        C735   1.409       .  A
C733        C734   1.414       .  A
C734        C742   1.403       .  A
C735        C744   1.396       .  A
C735        C736   1.403   1_455  A
C736        C737   1.397       .  A
C736        H747   1.084       .  S
C737        C738   1.403       .  A
C737        H748   1.084       .  S
C738        C739   1.402       .  A
C739        C740   1.405       .  A
C739        H749   1.084       .  S
C740        C741   1.407       .  A
C741        H750   1.085       .  S
C742        C743   1.405       .  A
C742        H751   1.084       .  S
C743        C744   1.408       .  A
C744        H752   1.085       .  S
