geometry optimzed in LAMMPS
_audit_creation_date              2020-12-01 
_audit_creation_method            'lammps2cif' 
_symmetry_space_group_name_H-M    'P1' 
_symmetry_Int_Tables_number       1 
_symmetry_cell_setting            triclinic 
loop_ 
_symmetry_equiv_pos_as_xyz 
  x,y,z 
_cell_length_a                    28.03876889 
_cell_length_b                    46.006929574979104 
_cell_length_c                    30.50566044203644 
_cell_angle_alpha                 89.94383740423645 
_cell_angle_beta                  108.47297996432215 
_cell_angle_gamma                 90.139224586101 
loop_ 
_atom_site_label 
_atom_site_type_symbol 
_atom_site_fract_x 
_atom_site_fract_y 
_atom_site_fract_z 
_atom_site_charge 
O1          O  0.63219372  0.55332054  0.76995240    -0.81800
C2          C  0.75469956  0.59893290  0.67451247     0.97600
O3          O  0.71323588  0.61034177  0.67392527    -0.70900
O4          O  0.64226504  0.57174959  0.65549967    -0.74500
Al5        Al  0.66480391  0.59899318  0.70340868     1.49000
C6          C  0.63250185  0.54508536  0.65553802     0.92800
O7          O  0.73985950  0.51906150  0.74006898    -0.80700
O8          O  0.76342884  0.58526223  0.82677522    -0.74300
Al9        Al  0.68756029  0.53943123  0.75455606     1.90100
O10         O  0.80060133  0.54718777  0.77869045    -0.73400
O11         O  0.76186924  0.62580370  0.76427069    -0.73200
O12         O  0.78139422  0.58481401  0.70929816    -0.78900
O13         O  0.68100072  0.63121789  0.74540179    -0.77100
O14         O  0.70708511  0.57437687  0.74177488    -1.13200
O15         O  0.60818420  0.59091104  0.72435371    -0.72400
C16         C  0.59956124  0.57200634  0.75099884     0.98300
C17         C  0.78590443  0.52306501  0.76019288     0.94700
Al18       Al  0.77122162  0.58487822  0.76764766     1.55600
O19         O  0.64662814  0.53071428  0.69267507    -0.77000
C20         C  0.72459823  0.64201785  0.75918349     1.01300
C21         C  0.74685196  0.56404508  0.84421156     0.93800
O22         O  0.72428055  0.54270432  0.81973386    -0.82300
O23         O  0.89902215  0.55079471  0.25631457    -0.81800
C24         C  0.79676695  0.60136408  0.36025625     0.97600
O25         O  0.83805806  0.61088512  0.35631301    -0.70900
O26         O  0.90864982  0.57372115  0.35868986    -0.74500
Al27       Al  0.87572778  0.60212152  0.31526848     1.49000
C28         C  0.90582653  0.54663433  0.36286270     0.92800
O29         O  0.78285220  0.52363239  0.28162970    -0.80700
O30         O  0.76536948  0.59164063  0.20191405    -0.74300
Al31       Al  0.83915513  0.54191423  0.26933898     1.90100
O32         O  0.72771724  0.55597442  0.25061171    -0.73400
O33         O  0.77449465  0.63120977  0.26969641    -0.73200
O34         O  0.76319305  0.58990710  0.32603055    -0.78900
O35         O  0.85321584  0.63686467  0.27844076    -0.77100
O36         O  0.82716021  0.57823045  0.28278185    -1.13200
O37         O  0.92067618  0.59523631  0.28019558    -0.72400
C38         C  0.92938379  0.57175033  0.26262961     0.98300
C39         C  0.73758587  0.53074360  0.26508330     0.94700
Al40       Al  0.76408881  0.59094789  0.26379112     1.55600
O41         O  0.87641562  0.53152137  0.33117892    -0.77000
C42         C  0.81062822  0.64775205  0.27301292     0.98900
C43         C  0.78007157  0.57064356  0.18206921     0.93800
O44         O  0.80336258  0.54876657  0.20495493    -0.82300
O45         O  0.32215080  0.44866938  0.20230619    -0.81800
C46         C  0.30302191  0.39553425  0.36020784     0.97600
O47         O  0.27017736  0.39333681  0.32048358    -0.70900
O48         O  0.23566138  0.43947612  0.27183238    -0.74500
Al49       Al  0.26931960  0.40659222  0.25989633     1.49000
C50         C  0.24160464  0.46619726  0.26792193     0.92800
O51         O  0.36990151  0.47049838  0.32838198    -0.80700
O52         O  0.41867948  0.40026357  0.27795552    -0.74300
Al53       Al  0.34456573  0.45746642  0.26545812     1.90100
O54         O  0.41930705  0.43318964  0.35189952    -0.73400
O55         O  0.35527809  0.36263319  0.30187869    -0.73200
O56         O  0.34835461  0.40119851  0.36454479    -0.78900
O57         O  0.28934172  0.37024357  0.24287685    -0.77100
O58         O  0.33103671  0.42168765  0.28137524    -1.13200
O59         O  0.26035354  0.41766413  0.19702894    -0.72400
C60         C  0.28689960  0.43270415  0.17871660     0.98300
C61         C  0.40774794  0.45905498  0.35745716     0.94700
Al62       Al  0.38082040  0.40104079  0.32014342     1.55600
O63         O  0.28158148  0.47544043  0.26229364    -0.77000
C64         C  0.31882791  0.35287873  0.26959021     0.98900
C65         C  0.43393773  0.42381176  0.26515235     0.93800
O66         O  0.41042841  0.44747124  0.26390142    -0.82300
O67         O  0.20906523  0.44841451  0.81726457    -0.81800
C68         C  0.22660558  0.39539953  0.65897582     0.97600
O69         O  0.25969724  0.39333931  0.69839959    -0.70900
O70         O  0.29547417  0.43966434  0.74523751    -0.74500
Al71       Al  0.26135796  0.40726968  0.75844908     1.49000
C72         C  0.29174547  0.46625318  0.75194797     0.92800
O73         O  0.16618531  0.47312229  0.69210428    -0.80700
O74         O  0.10928385  0.40453153  0.73923006    -0.74300
Al75       Al  0.18893356  0.45898848  0.75464868     1.90100
O76         O  0.11506620  0.43650199  0.66592654    -0.73400
O77         O  0.17051781  0.36562928  0.71850361    -0.73200
O78         O  0.18168280  0.40177457  0.65447298    -0.78900
O79         O  0.23962049  0.37128364  0.77563536    -0.77100
O80         O  0.20012556  0.42318738  0.73752336    -1.13200
O81         O  0.27234187  0.41887285  0.82143872    -0.72400
C82         C  0.24509689  0.43271303  0.84035361     0.98300
C83         C  0.12911157  0.46201746  0.66133608     0.94700
Al84       Al  0.14884190  0.40365510  0.69845308     1.55600
O85         O  0.25339071  0.47554928  0.76033847    -0.77000
C86         C  0.20679733  0.35499332  0.74978005     0.98900
C87         C  0.09457410  0.42880059  0.74959013     0.93800
O88         O  0.12181151  0.45121570  0.75336634    -0.82300
O89         O  0.68591599  0.95239087  0.30326857    -0.81800
C90         C  0.71244803  0.89625177  0.14919497     0.97600
O91         O  0.74718873  0.90224253  0.18618761    -0.70900
O92         O  0.77296780  0.95046723  0.23016062    -0.74500
Al93       Al  0.74701260  0.91549280  0.24563418     1.49000
C94         C  0.76457962  0.97638093  0.23724075     0.92800
O95         O  0.63993569  0.97215247  0.17590714    -0.80700
O96         O  0.59379655  0.90368839  0.23184229    -0.74300
Al97       Al  0.66409599  0.96122678  0.23974847     1.90100
O98         O  0.59710641  0.93178401  0.15297598    -0.73400
O99         O  0.66205150  0.86597339  0.22096312    -0.73200
O100        O  0.66689321  0.89654015  0.14709970    -0.78900
O101        O  0.73709187  0.87767424  0.26448811    -0.77100
O102        O  0.68226631  0.92583819  0.22587304    -1.13200
O103        O  0.75503849  0.92730564  0.30831418    -0.72400
C104        C  0.72525813  0.93923383  0.32679712     0.98300
C105        C  0.60703574  0.95774392  0.14534809     0.94700
Al106      Al  0.63445185  0.90165906  0.19170161     1.55600
O107        O  0.72494588  0.98263893  0.24581408    -0.77000
C108        C  0.70403373  0.85873134  0.24869916     0.98900
C109        C  0.57554615  0.92736709  0.24001125     0.93800
O110        O  0.59803483  0.95092178  0.23886619    -0.82300
O111        O  0.80839181  0.94833702  0.69253277    -0.81800
C112        C  0.77273286  0.89507032  0.84542879     0.97600
O113        O  0.74262296  0.89459146  0.80451603    -0.70900
O114        O  0.71134465  0.94131021  0.75649122    -0.74500
Al115      Al  0.74739575  0.90861098  0.74653073     1.49000
C116        C  0.71505677  0.96749745  0.74675028     0.92800
O117        O  0.83499296  0.97563984  0.81485835    -0.80700
O118        O  0.90407990  0.90820619  0.77983941    -0.74300
Al119      Al  0.82068946  0.96036048  0.75400029     1.90100
O120        O  0.88473853  0.93974729  0.84921260    -0.73400
O121        O  0.83915018  0.86745735  0.79184250    -0.73200
O122        O  0.81838926  0.90157881  0.85377025    -0.78900
O123        O  0.77142122  0.87238913  0.73244866    -0.77100
O124        O  0.80816676  0.92469486  0.77148545    -1.13200
O125        O  0.74228979  0.92010055  0.68428396    -0.72400
C126        C  0.77241052  0.93324758  0.66752436     0.98300
C127        C  0.86811360  0.96519580  0.84965736     0.94700
Al128      Al  0.85723672  0.90584491  0.81436731     1.55600
O129        O  0.75465607  0.97628039  0.74012947    -0.77000
C130        C  0.80407055  0.85649693  0.75945908     0.98900
C131        C  0.91852349  0.93250999  0.76907870     0.93800
O132        O  0.88990068  0.95424482  0.76296363    -0.82300
O133        O  0.09773316  0.05209444  0.24154950    -0.81800
C134        C  0.20353621  0.10449932  0.14226251     0.97600
O135        O  0.15896654  0.10345432  0.14294183    -0.70900
O136        O  0.08899593  0.07115043  0.15483031    -0.74500
Al137      Al  0.13118178  0.10055845  0.19102484     1.49000
C138        C  0.09671913  0.04509033  0.14590862     0.92800
O139        O  0.22023170  0.01920443  0.23821776    -0.80700
O140        O  0.25718015  0.07209876  0.30227460    -0.74300
Al141      Al  0.16121957  0.04064643  0.23717939     1.90100
O142        O  0.26679421  0.05115565  0.21932300    -0.73400
O143        O  0.23631516  0.12255035  0.26245031    -0.73200
O144        O  0.24012579  0.10064571  0.17900311    -0.78900
O145        O  0.16336762  0.13637900  0.21760396    -0.77100
O146        O  0.17923322  0.07585840  0.22279492    -1.13200
O147        O  0.09528477  0.09956547  0.23560298    -0.72400
C148        C  0.07708976  0.07594954  0.24488644     0.98300
C149        C  0.25903852  0.02533155  0.22798964     0.94700
Al150      Al  0.24411370  0.08570949  0.23934861     1.55600
O151        O  0.13162323  0.03041545  0.17362015    -0.77000
C152        C  0.20598215  0.14255708  0.24553922     0.98900
C153        C  0.22952912  0.05997164  0.32299823     0.93800
O154        O  0.18817994  0.04824066  0.30063988    -0.82300
O155        O  0.38276278  0.05672142  0.73487111    -0.81800
C156        C  0.25959199  0.10034699  0.83294175     0.97600
O157        O  0.30107781  0.11142748  0.83310654    -0.70900
O158        O  0.37162835  0.07277476  0.85181446    -0.74500
Al159      Al  0.34953077  0.10018059  0.80392927     1.49000
C160        C  0.38307759  0.04648223  0.85048062     0.92800
O161        O  0.27839267  0.01893380  0.76735274    -0.80700
O162        O  0.25004540  0.08481421  0.67981519    -0.74300
Al163      Al  0.32909412  0.04084415  0.75177085     1.90100
O164        O  0.21569221  0.04653676  0.73070221    -0.73400
O165        O  0.25220516  0.12522442  0.74216808    -0.73200
O166        O  0.23370480  0.08494156  0.79923452    -0.78900
O167        O  0.33268515  0.13230813  0.76146204    -0.77100
O168        O  0.30798013  0.07513424  0.76533885    -1.13200
O169        O  0.40681355  0.09275843  0.78381181    -0.72400
C170        C  0.41532595  0.07516384  0.75542403     0.98300
C171        C  0.23188891  0.02250729  0.74871370     0.94700
Al172      Al  0.24346554  0.08457473  0.74000834     1.55600
O173        O  0.37172325  0.03271648  0.81283841    -0.77000
C174        C  0.28847170  0.14221741  0.74697021     0.98900
C175        C  0.26785235  0.06412532  0.66243210     0.93800
O176        O  0.29114428  0.04323994  0.68726845    -0.82300
C177        C  0.21799216  0.07109906  0.53120201    -0.22500
C178        C  0.25997837  0.06185853  0.51934943     0.09500
C179        C  0.30439849  0.05398277  0.55442699     0.09900
C180        C  0.30560196  0.05508137  0.60069547    -0.17400
C181        C  0.26360872  0.06421777  0.61281635    -0.27800
C182        C  0.21927063  0.07249940  0.57760416     0.18200
C183        C  0.25609757  0.06000615  0.46984296     0.12200
C184        C  0.35023582  0.04407107  0.54297134    -0.12200
H185        H  0.33973275  0.04890795  0.62767852     0.12500
C186        C  0.17280801  0.08182277  0.58851721    -0.23000
H187        H  0.18398045  0.07703571  0.50389960     0.08100
C188        C  0.23143863  0.03650757  0.44226681     0.04500
C189        C  0.22587910  0.03648265  0.39496866    -0.20200
C190        C  0.24416789  0.05947973  0.37428236    -0.12500
C191        C  0.27063376  0.08254591  0.40250962     0.13200
C192        C  0.27627212  0.08243234  0.45000097    -0.23000
C193        C  0.21064887  0.01156867  0.46271366    -0.06000
H194        H  0.20601470  0.01861413  0.37374947     0.14700
C195        C  0.29085581  0.10802291  0.38279835    -0.16200
H196        H  0.29540361  0.10030609  0.47167148     0.09000
H197        H  0.14087453  0.08600300  0.55662575     0.06900
H198        H  0.18039842  0.10220842  0.60900033     0.08100
H199        H  0.16118866  0.06450878  0.60841834     0.07100
H200        H  0.36343004  0.06167280  0.52469135     0.02000
H201        H  0.34085601  0.02455460  0.52045501     0.02500
H202        H  0.38161537  0.03837745  0.57453998     0.06000
H203        H  0.19306033  0.99475639  0.43641217     0.05000
H204        H  0.18156795  0.01960306  0.47731243    -0.00800
H205        H  0.24142795  0.00116002  0.49057439     0.00700
H206        H  0.25964634  0.11905639  0.35624791     0.04300
H207        H  0.31943140  0.10047738  0.36721193     0.06300
H208        H  0.30920131  0.12430483  0.40976721     0.07100
C209        C  0.18334512  0.12178160  0.01517940    -0.22500
C210        C  0.22558335  0.10868572  0.00888490     0.09500
C211        C  0.26318577  0.09696901  0.04725641     0.09900
C212        C  0.25611160  0.09708749  0.09087104    -0.17400
C213        C  0.21227614  0.10870594  0.09699144    -0.27800
C214        C  0.17597624  0.12197284  0.05857312     0.18200
C215        C  0.22924332  0.10722653  0.96155935     0.12200
C216        C  0.31066517  0.08432596  0.04208636    -0.12200
H217        H  0.28421002  0.08713632  0.11993835     0.12500
C218        C  0.12932655  0.13655416  0.06248518    -0.23000
H219        H  0.15531126  0.13126403  0.98555096     0.08100
C220        C  0.21498639  0.08201281  0.93413224     0.04500
C221        C  0.22264337  0.08087823  0.89085017    -0.20200
C222        C  0.24347786  0.10457524  0.87421845    -0.12500
C223        C  0.25330248  0.13078925  0.90000718     0.13200
C224        C  0.24639187  0.13165869  0.94358985    -0.23000
C225        C  0.19158907  0.05640368  0.95051789    -0.06000
H226        H  0.21420685  0.06099774  0.87078636     0.14700
C227        C  0.26993771  0.15809986  0.88147142    -0.16200
H228        H  0.25520312  0.15132423  0.96416488     0.09000
H229        H  0.10327405  0.12015841  0.06898828     0.06900
H230        H  0.10837470  0.14811436  0.03015577     0.08100
H231        H  0.13980837  0.15282482  0.09082350     0.07100
H232        H  0.33083091  0.10124088  0.02878026     0.02000
H233        H  0.30157036  0.06582105  0.01753824     0.02500
H234        H  0.33637594  0.07629853  0.07557824     0.06000
H235        H  0.18211092  0.03861046  0.92457567     0.05000
H236        H  0.15638388  0.06333518  0.95676148    -0.00800
H237        H  0.21782626  0.04761109  0.98308934     0.00700
H238        H  0.27084199  0.17707552  0.90420929     0.04300
H239        H  0.24332693  0.16315564  0.84671181     0.06300
H240        H  0.30838774  0.15548750  0.87923026     0.07100
C241        C  0.91831407  0.98421618  0.97541681    -0.22500
C242        C  0.95495967  0.00483177  0.97492065     0.09500
C243        C  0.95736997  0.01564535  0.93229163     0.09900
C244        C  0.92486896  0.00416065  0.89093416    -0.17400
C245        C  0.88997037  0.98245742  0.89162251    -0.27800
C246        C  0.88517695  0.97326406  0.93422287     0.18200
C247        C  0.99088239  0.01431867  0.01951996     0.12200
C248        C  0.99458872  0.03892391  0.93047306    -0.12200
H249        H  0.92858463  0.01094109  0.85811504     0.12500
C250        C  0.84557315  0.95187309  0.93722663    -0.23000
H251        H  0.91596429  0.97634639  0.00819707     0.08100
C252        C  0.97576777  0.03259493  0.04964364     0.04500
C253        C  0.01118965  0.04105011  0.09135357    -0.20200
C254        C  0.06179441  0.03232405  0.10337330    -0.12500
C255        C  0.07705371  0.01415138  0.07281207     0.13200
C256        C  0.04092207  0.00481950  0.03178265    -0.23000
C257        C  0.92272348  0.04391852  0.03725363    -0.06000
H258        H  0.99937559  0.05508610  0.11451315     0.14700
C259        C  0.13090283  0.00547870  0.08029865    -0.16200
H260        H  0.05221371  0.99075976  0.00832242     0.09000
H261        H  0.82353405  0.96142346  0.95810311     0.06900
H262        H  0.86361327  0.93150960  0.95400464     0.08100
H263        H  0.81853787  0.94666232  0.90290284     0.07100
H264        H  0.03355707  0.03100769  0.94674087     0.02000
H265        H  0.98844296  0.05853574  0.94916739     0.02500
H266        H  0.99056571  0.04529699  0.89434711     0.06000
H267        H  0.91789729  0.05883885  0.06414109     0.05000
H268        H  0.89595026  0.02560562  0.03364657    -0.00800
H269        H  0.91319774  0.05606730  0.00413440     0.00700
H270        H  0.13447299  0.98150926  0.08410665     0.04300
H271        H  0.15817828  0.01571282  0.11078425     0.06300
H272        H  0.14190592  0.01214782  0.04982810     0.07100
C273        C  0.58509987  0.99954435  0.73240140    -0.22500
C274        C  0.59610383  0.02926525  0.73880748     0.09500
C275        C  0.64598079  0.03880303  0.74668233     0.09900
C276        C  0.68381605  0.01823326  0.74883935    -0.17400
C277        C  0.67306688  0.98824381  0.74325951    -0.27800
C278        C  0.62243882  0.97898319  0.73376735     0.18200
C279        C  0.55456286  0.04917406  0.73961760     0.12200
C280        C  0.65913574  0.07063496  0.75210889    -0.12200
H281        H  0.72216178  0.02565835  0.75544097     0.12500
C282        C  0.60660996  0.94770739  0.72359590    -0.23000
H283        H  0.54671541  0.99235632  0.72652970     0.08100
C284        C  0.51193185  0.05312419  0.70021955     0.04500
C285        C  0.46790535  0.06497062  0.70543582    -0.20200
C286        C  0.46559072  0.07326448  0.74904376    -0.12500
C287        C  0.51020580  0.07254994  0.78745336     0.13200
C288        C  0.55399873  0.06026047  0.78226978    -0.23000
C289        C  0.51234960  0.04400662  0.65291116    -0.06000
H290        H  0.43407760  0.06595732  0.67580305     0.14700
C291        C  0.51107764  0.08254921  0.83473827    -0.16200
H292        H  0.58684859  0.05734297  0.81239404     0.09000
H293        H  0.61851390  0.93969723  0.69434897     0.06900
H294        H  0.56517231  0.94502330  0.71382629     0.08100
H295        H  0.62346924  0.93410888  0.75457590     0.07100
H296        H  0.65122951  0.07950930  0.78288023     0.02000
H297        H  0.63650065  0.08262659  0.72086352     0.02500
H298        H  0.69954154  0.07445070  0.75660772     0.06000
H299        H  0.47651331  0.04956596  0.62578328     0.05000
H300        H  0.51775784  0.02019223  0.65170523    -0.00800
H301        H  0.54339022  0.05534642  0.64455475     0.00700
H302        H  0.48403566  0.06970014  0.84663597     0.04300
H303        H  0.50091979  0.10591161  0.83342391     0.06300
H304        H  0.54886623  0.07996027  0.86074041     0.07100
C305        C  0.04580833  0.92850519  0.74652792    -0.22500
C306        C  0.06611813  0.95565164  0.76422319     0.09500
C307        C  0.03854845  0.97404633  0.78417335     0.09900
C308        C  0.99202812  0.96473138  0.78677980    -0.17400
C309        C  0.97059402  0.93793335  0.76823311    -0.27800
C310        C  0.99804812  0.91945724  0.74781231     0.18200
C311        C  0.11350881  0.96628028  0.75762424     0.12200
C312        C  0.05692265  0.00422215  0.80077401    -0.12200
H313        H  0.97141963  0.97904513  0.80252383     0.12500
C314        C  0.97760395  0.89106257  0.72489838    -0.23000
H315        H  0.06657822  0.91473908  0.73018574     0.08100
C316        C  0.15926327  0.96746375  0.79446041     0.04500
C317        C  0.19949736  0.98414712  0.78960082    -0.20200
C318        C  0.19492931  0.99935725  0.74852928    -0.12500
C319        C  0.15102624  0.99533627  0.71001966     0.13200
C320        C  0.11061242  0.97931082  0.71536730    -0.23000
C321        C  0.16507365  0.95169484  0.83913592    -0.06000
H322        H  0.23336781  0.98673114  0.81885325     0.14700
C323        C  0.14535099  0.00773403  0.66282889    -0.16200
H324        H  0.07583064  0.97787670  0.68679328     0.09000
H325        H  0.00255298  0.87304271  0.74268670     0.06900
H326        H  0.97652937  0.89167235  0.68820252     0.08100
H327        H  0.93905246  0.88623315  0.72511697     0.07100
H328        H  0.06165007  0.01715171  0.77167076     0.02000
H329        H  0.09344896  0.00315475  0.82881769     0.02500
H330        H  0.03002176  0.01592482  0.81443975     0.06000
H331        H  0.20325210  0.95477348  0.86428622     0.05000
H332        H  0.15891919  0.92807081  0.83217720    -0.00800
H333        H  0.13730644  0.95968492  0.85529137     0.00700
H334        H  0.13464807  0.99008318  0.63670130     0.04300
H335        H  0.18058713  0.01741974  0.66025954     0.06300
H336        H  0.11537844  0.02449453  0.65398441     0.07100
C337        C  0.43579191  0.02252584  0.97553603    -0.22500
C338        C  0.48158001  0.01025662  0.97553428     0.09500
C339        C  0.49317765  0.00863013  0.93375476     0.09900
C340        C  0.45857294  0.01921481  0.89303239    -0.17400
C341        C  0.41359084  0.03230438  0.89329435    -0.27800
C342        C  0.40174262  0.03387307  0.93499033     0.18200
C343        C  0.51546175  0.99771833  0.01900497     0.12200
C344        C  0.54277502  0.99683537  0.93219448    -0.12200
H345        H  0.46758208  0.01829499  0.86101243     0.12500
C346        C  0.35322528  0.04657528  0.93783499    -0.23000
H347        H  0.42633369  0.02301003  0.00734832     0.08100
C348        C  0.54030389  0.01498763  0.05783003     0.04500
C349        C  0.57090715  0.00150426  0.09834143    -0.20200
C350        C  0.57767192  0.97120690  0.10070273    -0.12500
C351        C  0.55436195  0.95417954  0.06068045     0.13200
C352        C  0.52269401  0.96765025  0.02103814    -0.23000
C353        C  0.53520842  0.04759646  0.05637756    -0.06000
H354        H  0.58893311  0.01466788  0.12851937     0.14700
C355        C  0.56350152  0.92196386  0.05824163    -0.16200
H356        H  0.50330213  0.95457929  0.99110920     0.09000
H357        H  0.36152964  0.06597232  0.96066227     0.06900
H358        H  0.33347531  0.03020010  0.95261694     0.08100
H359        H  0.32692154  0.05300117  0.90376933     0.07100
H360        H  0.54619458  0.97343498  0.94126513     0.02000
H361        H  0.57414743  0.00901199  0.95685917     0.02500
H362        H  0.54668218  0.99901650  0.89721852     0.06000
H363        H  0.55884492  0.05779033  0.08905420     0.05000
H364        H  0.49562446  0.05385253  0.05114693    -0.00800
H365        H  0.54722574  0.05643223  0.02764288     0.00700
H366        H  0.54691749  0.90977094  0.08127505     0.04300
H367        H  0.60449726  0.91775865  0.06790815     0.06300
H368        H  0.54597091  0.91323144  0.02281758     0.07100
C369        C  0.70820362  0.86407415  0.03375831    -0.22500
C370        C  0.73481457  0.88529754  0.01808697     0.09500
C371        C  0.75800657  0.90848756  0.04743070     0.09900
C372        C  0.75264344  0.91046123  0.09143933    -0.17400
C373        C  0.72439316  0.88993438  0.10657625    -0.27800
C374        C  0.70302573  0.86595444  0.07793750     0.18200
C375        C  0.73870135  0.88307134  0.97101845     0.12200
C376        C  0.78771599  0.93139099  0.03195507    -0.12200
H377        H  0.76866830  0.92880080  0.11332257     0.12500
C378        C  0.67549271  0.84175679  0.09319443    -0.23000
H379        H  0.69140626  0.84597850  0.01140226     0.08100
C380        C  0.77779765  0.86719159  0.96261429     0.04500
C381        C  0.78593352  0.87005839  0.91981488    -0.20200
C382        C  0.75549288  0.88820136  0.88517982    -0.12500
C383        C  0.71408461  0.90245782  0.89250195     0.13200
C384        C  0.70619673  0.89972186  0.93553703    -0.23000
C385        C  0.81201905  0.84816639  0.99944463    -0.06000
H386        H  0.81743739  0.85896570  0.91392683     0.14700
C387        C  0.68004358  0.92183156  0.85619592    -0.16200
H388        H  0.67608173  0.91171511  0.94238482     0.09000
H389        H  0.69333869  0.82064408  0.09022199     0.06900
H390        H  0.63567738  0.84126694  0.07068573     0.08100
H391        H  0.67638728  0.84387996  0.12961956     0.07100
H392        H  0.76304240  0.94274984  0.00096086     0.02000
H393        H  0.81939564  0.92109343  0.02334611     0.02500
H394        H  0.80356720  0.94791140  0.05925778     0.06000
H395        H  0.84087614  0.83737786  0.98721795     0.05000
H396        H  0.78956299  0.83100501  0.00947581    -0.00800
H397        H  0.83168815  0.86143366  0.03028490     0.00700
H398        H  0.65046964  0.93194420  0.86822478     0.04300
H399        H  0.66111068  0.90875264  0.82498383     0.06300
H400        H  0.70226333  0.93953301  0.84716217     0.07100
C401        C  0.79821336  0.92443295  0.55350577    -0.22500
C402        C  0.75257730  0.93380972  0.52213891     0.09500
C403        C  0.71248504  0.94145807  0.53865711     0.09900
C404        C  0.71935693  0.93987313  0.58627122    -0.17400
C405        C  0.76555343  0.93136073  0.61769577    -0.27800
C406        C  0.80536362  0.92318130  0.60107771     0.18200
C407        C  0.74753662  0.93501770  0.47218436     0.12200
C408        C  0.66311254  0.95231349  0.50643979    -0.12200
H409        H  0.68912386  0.94627180  0.59924013     0.12500
C410        C  0.85545550  0.91238231  0.63222198    -0.23000
H411        H  0.82850417  0.91789149  0.54070791     0.08100
C412        C  0.77488966  0.95524359  0.45446465     0.04500
C413        C  0.76828548  0.95554963  0.40682814    -0.20200
C414        C  0.73462204  0.93639537  0.37672071    -0.12500
C415        C  0.70744100  0.91609734  0.39436651     0.13200
C416        C  0.71477245  0.91543433  0.44197070    -0.23000
C417        C  0.80972452  0.97712305  0.48538987    -0.06000
H418        H  0.78846873  0.97125489  0.39282081     0.14700
C419        C  0.67025721  0.89494049  0.36396169    -0.16200
H420        H  0.69442049  0.89962677  0.45561803     0.09000
H421        H  0.88563057  0.92769183  0.63085773     0.06900
H422        H  0.86336648  0.89068852  0.62020530     0.08100
H423        H  0.85688643  0.90985380  0.66871427     0.07100
H424        H  0.64447211  0.93509804  0.48142540     0.02000
H425        H  0.66971103  0.97167468  0.48735926     0.02500
H426        H  0.63690470  0.95863902  0.52547909     0.06000
H427        H  0.82624116  0.99208968  0.46546749     0.05000
H428        H  0.84118712  0.96587801  0.51127531    -0.00800
H429        H  0.78868331  0.99037302  0.50347708     0.00700
H430        H  0.68171910  0.87238257  0.37545147     0.04300
H431        H  0.66747338  0.89653213  0.32697148     0.06300
H432        H  0.63234718  0.89901991  0.36685384     0.07100
C433        C  0.93728738  0.07658465  0.22897136    -0.22500
C434        C  0.93438750  0.05334250  0.25797278     0.09500
C435        C  0.97932094  0.04193111  0.28872043     0.09900
C436        C  0.02587984  0.05288026  0.28796310    -0.17400
C437        C  0.02911275  0.07425466  0.25601974    -0.27800
C438        C  0.98412195  0.08706771  0.22737681     0.18200
C439        C  0.88584032  0.03735792  0.24927824     0.12200
C440        C  0.97844137  0.01646501  0.31963252    -0.12200
H441        H  0.06019106  0.04282717  0.30969144     0.12500
C442        C  0.98508793  0.10995621  0.19235869    -0.23000
H443        H  0.90277859  0.08506714  0.20506005     0.08100
C444        C  0.85456650  0.04042861  0.27731073     0.04500
C445        C  0.81349686  0.02124810  0.27119181    -0.20200
C446        C  0.80311122  0.99901330  0.23769697    -0.12500
C447        C  0.83261250  0.99749602  0.20761976     0.13200
C448        C  0.87336552  0.01662254  0.21383853    -0.23000
C449        C  0.86460348  0.06384919  0.31355829    -0.06000
H450        H  0.79069866  0.02288697  0.29389049     0.14700
C451        C  0.82126279  0.97595698  0.16847032    -0.16200
H452        H  0.89697536  0.01469413  0.19188430     0.09000
H453        H  0.94663419  0.11739221  0.17252535     0.06900
H454        H  0.00273017  0.10109958  0.16738001     0.08100
H455        H  0.00686863  0.12909743  0.21019231     0.07100
H456        H  0.95988584  0.99755598  0.29839139     0.02000
H457        H  0.95758018  0.02221191  0.34376292     0.02500
H458        H  0.01695233  0.00976554  0.34060926     0.06000
H459        H  0.83646414  0.06343360  0.33226291     0.05000
H460        H  0.86283359  0.08545572  0.29688205    -0.00800
H461        H  0.90240542  0.06104688  0.33925723     0.00700
H462        H  0.84529434  0.97954901  0.14616923     0.04300
H463        H  0.78143281  0.97821261  0.14651247     0.06300
H464        H  0.82839472  0.95350082  0.18217497     0.07100
C465        C  0.43429130  0.92918525  0.21357904    -0.22500
C466        C  0.43032000  0.95057895  0.24503008     0.09500
C467        C  0.47396686  0.95931650  0.28059496     0.09900
C468        C  0.52104089  0.94849360  0.28137750    -0.17400
C469        C  0.52572891  0.92921286  0.24729782    -0.27800
C470        C  0.48156320  0.91842330  0.21418736     0.18200
C471        C  0.38235614  0.96699898  0.23606596     0.12200
C472        C  0.47120952  0.98153717  0.31594780    -0.12200
H473        H  0.55481531  0.95679468  0.30674915     0.12500
C474        C  0.48429518  0.89749157  0.17714122    -0.23000
H475        H  0.40064238  0.92245453  0.18646760     0.08100
C476        C  0.37151601  0.99071941  0.20508713     0.04500
C477        C  0.32941803  0.00821222  0.20136093    -0.20200
C478        C  0.29759727  0.00288314  0.22808280    -0.12500
C479        C  0.30763801  0.97841262  0.25811253     0.13200
C480        C  0.34982687  0.96078132  0.26156602    -0.23000
C481        C  0.40560801  0.99827725  0.17716916    -0.06000
H482        H  0.32222314  0.02680341  0.17834092     0.14700
C483        C  0.27591027  0.97155381  0.28850425    -0.16200
H484        H  0.35858918  0.94267124  0.28552201     0.09000
H485        H  0.50535655  0.90749557  0.15568739     0.06900
H486        H  0.44630702  0.89148858  0.15390825     0.08100
H487        H  0.50354200  0.87727499  0.19330183     0.07100
H488        H  0.44662921  0.97332430  0.33549874     0.02000
H489        H  0.45557034  0.00220191  0.29849080     0.02500
H490        H  0.50884910  0.98621441  0.34105835     0.06000
H491        H  0.39219760  0.01772272  0.15513644     0.05000
H492        H  0.40714034  0.97981903  0.15425414    -0.00800
H493        H  0.44409612  0.00294054  0.20065117     0.00700
H494        H  0.29015228  0.95226432  0.31067146     0.04300
H495        H  0.23673072  0.96676107  0.26680143     0.06300
H496        H  0.27622675  0.99027180  0.31156651     0.07100
C497        C  0.21937270  0.21473509  0.72375728    -0.22500
C498        C  0.25874792  0.23430733  0.74208088     0.09500
C499        C  0.30868126  0.22401898  0.75766696     0.09900
C500        C  0.31775906  0.19396622  0.75670407    -0.17400
C501        C  0.27800147  0.17398333  0.73997001    -0.27800
C502        C  0.22802083  0.18491933  0.72157717     0.18200
C503        C  0.24579005  0.26539399  0.74437286     0.12200
C504        C  0.35224592  0.24474160  0.77502900    -0.12200
H505        H  0.35598847  0.18604818  0.77037491     0.12500
C506        C  0.18284354  0.16579898  0.69966454    -0.23000
H507        H  0.18119112  0.22294307  0.71160611     0.08100
C508        C  0.22520641  0.28184236  0.70373496     0.04500
C509        C  0.20959579  0.31036097  0.70717431    -0.20200
C510        C  0.21523465  0.32331642  0.75022905    -0.12500
C511        C  0.23537536  0.30679163  0.79099555     0.13200
C512        C  0.25019259  0.27792670  0.78748105    -0.23000
C513        C  0.22137633  0.26977504  0.65677206    -0.06000
H514        H  0.19505239  0.32315779  0.67590366     0.14700
C515        C  0.24032895  0.31851860  0.83832981    -0.16200
H516        H  0.26473590  0.26496915  0.81856016     0.09000
H517        H  0.18959711  0.15225238  0.67210662     0.06900
H518        H  0.14835798  0.17874277  0.68337654     0.08100
H519        H  0.17477983  0.15185499  0.72618122     0.07100
H520        H  0.34970189  0.25646472  0.80596813     0.02000
H521        H  0.35161799  0.26073502  0.74756143     0.02500
H522        H  0.38887709  0.23321066  0.78478641     0.06000
H523        H  0.20645248  0.28610598  0.62898496     0.05000
H524        H  0.19566765  0.25078523  0.64858746    -0.00800
H525        H  0.25920484  0.26305455  0.65626054     0.00700
H526        H  0.21977962  0.30407419  0.85542081     0.04300
H527        H  0.22440530  0.34061547  0.83739432     0.06300
H528        H  0.28061932  0.31911836  0.85955145     0.07100
C529        C  0.26843582  0.27769488  0.22464934    -0.22500
C530        C  0.26895278  0.26388821  0.26580866     0.09500
C531        C  0.28941114  0.27868030  0.30818469     0.09900
C532        C  0.30802358  0.30711661  0.30832432    -0.17400
C533        C  0.30633712  0.32134346  0.26702773    -0.27800
C534        C  0.28662286  0.30624626  0.22469386     0.18200
C535        C  0.25140282  0.23317291  0.26390685     0.12200
C536        C  0.29044620  0.26470514  0.35314049    -0.12200
H537        H  0.32216149  0.31874540  0.34079716     0.12500
C538        C  0.28632367  0.31970127  0.17970665    -0.23000
H539        H  0.25386692  0.26596502  0.19232515     0.08100
C540        C  0.19998020  0.22545640  0.24921596     0.04500
C541        C  0.18604958  0.19583075  0.24540895    -0.20200
C542        C  0.22238764  0.17357567  0.25596840    -0.12500
C543        C  0.27424011  0.18174054  0.27143213     0.13200
C544        C  0.28763594  0.21127819  0.27529868    -0.23000
C545        C  0.15992837  0.24852351  0.23749936    -0.06000
H546        H  0.14652834  0.19006396  0.23329431     0.14700
C547        C  0.31646053  0.15988943  0.28195939    -0.16200
H548        H  0.32699865  0.21747691  0.28621860     0.09000
H549        H  0.27217382  0.30434014  0.15034919     0.06900
H550        H  0.32531335  0.32595613  0.18208068     0.08100
H551        H  0.26161227  0.33908214  0.17199433     0.07100
H552        H  0.31375541  0.24473916  0.35904130     0.02000
H553        H  0.25159141  0.25891264  0.35196318     0.02500
H554        H  0.30654631  0.27949090  0.38296691     0.06000
H555        H  0.12158457  0.23892048  0.22715131     0.05000
H556        H  0.16317269  0.26201576  0.20839097    -0.00800
H557        H  0.16445705  0.26263503  0.26807127     0.00700
H558        H  0.35401208  0.17050259  0.29222655     0.04300
H559        H  0.31327234  0.14658719  0.25081094     0.06300
H560        H  0.31543850  0.14577719  0.31114232     0.07100
C561        C  0.29673398  0.40894530  0.06343831    -0.22500
C562        C  0.27252026  0.43193201  0.03514913     0.09500
C563        C  0.25146381  0.45475253  0.05381709     0.09900
C564        C  0.25499000  0.45396183  0.10072634    -0.17400
C565        C  0.27891410  0.43081661  0.12897146    -0.27800
C566        C  0.30068267  0.40822624  0.11031442     0.18200
C567        C  0.26770835  0.43098329  0.98557145     0.12200
C568        C  0.22624955  0.48013237  0.02442342    -0.12200
H569        H  0.23976168  0.47164110  0.11562056     0.12500
C570        C  0.32917249  0.38333457  0.13875433    -0.23000
H571        H  0.31285239  0.39150439  0.04883540     0.08100
C572        C  0.30773155  0.43882482  0.96916596     0.04500
C573        C  0.30027194  0.43815359  0.92139794    -0.20200
C574        C  0.25371661  0.42984747  0.89020574    -0.12500
C575        C  0.21454365  0.42067511  0.90705372     0.13200
C576        C  0.22195651  0.42166596  0.95453485    -0.23000
C577        C  0.35762281  0.44854299  0.00193850    -0.06000
H578        H  0.33019761  0.44498310  0.90825435     0.14700
C579        C  0.16488112  0.40906973  0.87615978    -0.16200
H580        H  0.19181782  0.41500990  0.96755235     0.09000
H581        H  0.36830620  0.38318525  0.13751154     0.06900
H582        H  0.31078958  0.36267381  0.12369531     0.08100
H583        H  0.33084609  0.38433773  0.17548901     0.07100
H584        H  0.19340230  0.47245236  0.99561208     0.02000
H585        H  0.25330799  0.49109812  0.00999771     0.02500
H586        H  0.21271697  0.49635821  0.04467321     0.06000
H587        H  0.38453374  0.45435790  0.98332087     0.05000
H588        H  0.37447810  0.43080249  0.02663678    -0.00800
H589        H  0.35220463  0.46793094  0.02147472     0.00700
H590        H  0.15812123  0.38714100  0.88828356     0.04300
H591        H  0.16346392  0.40670832  0.83965723     0.06300
H592        H  0.13402918  0.42373836  0.87760665     0.07100
C593        C  0.23609188  0.37691354  0.44803135    -0.22500
C594        C  0.27052615  0.38842304  0.48818127     0.09500
C595        C  0.31509780  0.40159996  0.48643570     0.09900
C596        C  0.32416337  0.40333502  0.44416518    -0.17400
C597        C  0.28969174  0.39222763  0.40324182    -0.27800
C598        C  0.24500857  0.37863464  0.40530971     0.18200
C599        C  0.25748623  0.38909179  0.53114450     0.12200
C600        C  0.35257539  0.41443761  0.52907070    -0.12200
H601        H  0.35831645  0.41401314  0.44320475     0.12500
C602        C  0.20682480  0.36572774  0.36329409    -0.23000
H603        H  0.20169646  0.36708124  0.45010874     0.08100
C604        C  0.22894305  0.41218961  0.53979755     0.04500
C605        C  0.22044624  0.41350743  0.58234657    -0.20200
C606        C  0.23982293  0.39229404  0.61644822    -0.12500
C607        C  0.26825248  0.36893831  0.60767065     0.13200
C608        C  0.27699828  0.36778691  0.56491254    -0.23000
C609        C  0.20812877  0.43566523  0.50439241    -0.06000
H610        H  0.19870580  0.43140953  0.58922034     0.14700
C611        C  0.28844251  0.34448991  0.64132206    -0.16200
H612        H  0.29919171  0.35021326  0.55781378     0.09000
H613        H  0.17547133  0.35504311  0.37209476     0.06900
H614        H  0.22498137  0.34906666  0.34758437     0.08100
H615        H  0.19024253  0.38305113  0.33772031     0.07100
H616        H  0.36666583  0.39722535  0.55551580     0.02000
H617        H  0.33440970  0.43177633  0.54345650     0.02500
H618        H  0.38540658  0.42414992  0.52146933     0.06000
H619        H  0.18669997  0.45216299  0.51697199     0.05000
H620        H  0.18234855  0.42592048  0.47231530    -0.00800
H621        H  0.23934177  0.44693487  0.49622721     0.00700
H622        H  0.27358038  0.32347952  0.62460918     0.04300
H623        H  0.27786118  0.34610200  0.67317715     0.06300
H624        H  0.33010505  0.34416133  0.65126082     0.07100
C625        C  0.76004474  0.72012439  0.29877333    -0.22500
C626        C  0.77067125  0.73857640  0.26669612     0.09500
C627        C  0.79960960  0.72797167  0.23959802     0.09900
C628        C  0.81441411  0.69846563  0.24320126    -0.17400
C629        C  0.80143509  0.67958095  0.27380603    -0.27800
C630        C  0.77520183  0.69095658  0.30297222     0.18200
C631        C  0.75140898  0.76896472  0.26309339     0.12200
C632        C  0.81542041  0.74788084  0.20748771    -0.12200
H633        H  0.83492680  0.68998545  0.22130481     0.12500
C634        C  0.76396735  0.67272723  0.33968932    -0.23000
H635        H  0.73919575  0.72861341  0.32040800     0.08100
C636        C  0.70684967  0.77737346  0.22841597     0.04500
C637        C  0.69058610  0.80643365  0.22623368    -0.20200
C638        C  0.71711664  0.82734841  0.25859448    -0.12500
C639        C  0.75947467  0.81807986  0.29571978     0.13200
C640        C  0.77603348  0.78910717  0.29723343    -0.23000
C641        C  0.67594024  0.75556956  0.19419529    -0.06000
H642        H  0.65777113  0.81298290  0.19810363     0.14700
C643        C  0.78733423  0.83827560  0.33433265    -0.16200
H644        H  0.80884717  0.78212593  0.32503301     0.09000
H645        H  0.73772744  0.65479425  0.32382391     0.06900
H646        H  0.74600869  0.68566112  0.36087571     0.08100
H647        H  0.79956210  0.66384216  0.36338981     0.07100
H648        H  0.83835441  0.76599415  0.22759578     0.02000
H649        H  0.78199808  0.75703864  0.18105368     0.02500
H650        H  0.83832634  0.73628235  0.18929153     0.06000
H651        H  0.64185523  0.76563974  0.16976161     0.05000
H652        H  0.66362863  0.73785964  0.21294157    -0.00800
H653        H  0.69835777  0.74607254  0.17369652     0.00700
H654        H  0.76040676  0.84884319  0.34925636     0.04300
H655        H  0.80811657  0.85501598  0.32144823     0.06300
H656        H  0.81546015  0.82644806  0.36265163     0.07100
C657        C  0.08583577  0.50707488  0.55053364    -0.22500
C658        C  0.03413395  0.50090264  0.53633128     0.09500
C659        C  0.01416609  0.48350161  0.56421949     0.09900
C660        C  0.04634965  0.47278050  0.60593932    -0.17400
C661        C  0.09848446  0.47822062  0.62016835    -0.27800
C662        C  0.11863751  0.49557331  0.59184890     0.18200
C663        C  0.00128481  0.51258956  0.49190822     0.12200
C664        C  0.95913642  0.47551277  0.54935902    -0.12200
H665        H  0.03071102  0.45918219  0.62704850     0.12500
C666        C  0.17409814  0.50122002  0.60214623    -0.23000
H667        H  0.10086607  0.52031111  0.52853683     0.08100
C668        C  0.97501162  0.53882346  0.49010336     0.04500
C669        C  0.94308640  0.54868663  0.44750408    -0.20200
C670        C  0.93757332  0.53328850  0.40637502    -0.12500
C671        C  0.96524872  0.50729802  0.40811522     0.13200
C672        C  0.99587099  0.49697650  0.45117225    -0.23000
C673        C  0.98133576  0.55664207  0.53302195    -0.06000
H674        H  0.92260852  0.56879914  0.44622913     0.14700
C675        C  0.96618877  0.49071134  0.36574780    -0.16200
H676        H  0.01675679  0.47696460  0.45289919     0.09000
H677        H  0.18152730  0.52491260  0.60688511     0.06900
H678        H  0.18593196  0.49372343  0.57259175     0.08100
H679        H  0.19807289  0.48985686  0.63319439     0.07100
H680        H  0.94897680  0.46353559  0.51607569     0.02000
H681        H  0.93576521  0.49538356  0.54486965     0.02500
H682        H  0.94996320  0.46143491  0.57521040     0.06000
H683        H  0.95852386  0.57681024  0.52530200     0.05000
H684        H  0.02141282  0.56295230  0.54852717    -0.00800
H685        H  0.96943099  0.54389241  0.55864509     0.00700
H686        H  0.00574115  0.48825686  0.36618642     0.04300
H687        H  0.94587633  0.50156799  0.33282604     0.06300
H688        H  0.94973427  0.46876324  0.36599351     0.07100
C689        C  0.60789457  0.49900620  0.25362226    -0.22500
C690        C  0.61752318  0.46918066  0.25550568     0.09500
C691        C  0.66609224  0.45929971  0.25867132     0.09900
C692        C  0.70484266  0.47974768  0.26271334    -0.17400
C693        C  0.69555994  0.50988283  0.26163538    -0.27800
C694        C  0.64561880  0.51949004  0.25581001     0.18200
C695        C  0.57560664  0.44946624  0.25586040     0.12200
C696        C  0.67646834  0.42735947  0.25602167    -0.12200
H697        H  0.74227078  0.47213519  0.26564853     0.12500
C698        C  0.63088518  0.55117515  0.25212484    -0.23000
H699        H  0.57021559  0.50629670  0.25057420     0.08100
C700        C  0.57064153  0.43949532  0.29804284     0.04500
C701        C  0.52525270  0.42664501  0.29828613    -0.20200
C702        C  0.48342438  0.42568066  0.25814192    -0.12500
C703        C  0.48855213  0.43515096  0.21578134     0.13200
C704        C  0.53503700  0.44619978  0.21494521    -0.23000
C705        C  0.61095787  0.44525537  0.34348860    -0.06000
H706        H  0.52055762  0.42042304  0.33097620     0.14700
C707        C  0.44491562  0.43544078  0.17157571    -0.16200
H708        H  0.53836152  0.45457062  0.18279542     0.09000
H709        H  0.65414961  0.56320974  0.28294506     0.06900
H710        H  0.59090866  0.55425507  0.24991767     0.08100
H711        H  0.63555339  0.56075333  0.22032251     0.07100
H712        H  0.65191970  0.41850858  0.22261957     0.02000
H713        H  0.66881606  0.41537431  0.28458509     0.02500
H714        H  0.71620111  0.42334567  0.25821341     0.06000
H715        H  0.59999983  0.43708430  0.37321730     0.05000
H716        H  0.61771256  0.46901152  0.34820325    -0.00800
H717        H  0.64647284  0.43440947  0.34444082     0.00700
H718        H  0.43753155  0.45806825  0.15853418     0.04300
H719        H  0.40995592  0.42676394  0.17623667     0.06300
H720        H  0.45404997  0.42194490  0.14516748     0.07100
C721        C  0.06963304  0.56268100  0.28307835    -0.22500
C722        C  0.06907516  0.54059801  0.25126947     0.09500
C723        C  0.02297501  0.53276518  0.21814436     0.09900
C724        C  0.97819869  0.54600190  0.21927549    -0.17400
C725        C  0.97793566  0.56645808  0.25351712    -0.27800
C726        C  0.02472482  0.57557900  0.28492582     0.18200
C727        C  0.11558329  0.52320125  0.25734313     0.12200
C728        C  0.02067884  0.50924992  0.18318659    -0.12200
H729        H  0.94268684  0.53879788  0.19522226     0.12500
C730        C  0.02757912  0.59706579  0.32292555    -0.23000
H731        H  0.10514802  0.56852475  0.30849691     0.08100
C732        C  0.15070163  0.52999428  0.23442292     0.04500
C733        C  0.19253753  0.51171003  0.23997167    -0.20200
C734        C  0.19988313  0.48650461  0.26757125    -0.12500
C735        C  0.16520097  0.48035351  0.29174194     0.13200
C736        C  0.12382734  0.49883558  0.28637240    -0.23000
C737        C  0.14366573  0.55634983  0.20378311    -0.06000
H738        H  0.21872956  0.51663430  0.22139481     0.14700
C739        C  0.17149765  0.45460056  0.32375950    -0.16200
H740        H  0.09697349  0.49395085  0.30428980     0.09000
H741        H  0.06702408  0.60136750  0.34451203     0.06900
H742        H  0.00716962  0.58843283  0.34597553     0.08100
H743        H  0.01077949  0.61805411  0.30773192     0.07100
H744        H  0.03473113  0.48848824  0.20117444     0.02000
H745        H  0.04425220  0.51541839  0.16150193     0.02500
H746        H  0.98167845  0.50560295  0.15998192     0.06000
H747        H  0.17446002  0.55861191  0.18838221     0.05000
H748        H  0.14317326  0.57620715  0.22428198    -0.00800
H749        H  0.10756660  0.55469363  0.17519683     0.00700
H750        H  0.14343021  0.45471586  0.34255397     0.04300
H751        H  0.20951860  0.45499680  0.34988954     0.06300
H752        H  0.16608658  0.43406498  0.30376046     0.07100
C753        C  0.78784292  0.71572010  0.79282609    -0.22500
C754        C  0.75480745  0.73405700  0.76047546     0.09500
C755        C  0.70959807  0.72235381  0.73035818     0.09900
C756        C  0.69911431  0.69253830  0.73279673    -0.17400
C757        C  0.73293021  0.67397431  0.76430722    -0.27800
C758        C  0.77748385  0.68599078  0.79544537     0.18200
C759        C  0.76813094  0.76549349  0.76000008     0.12200
C760        C  0.67231771  0.74123398  0.69566770    -0.12200
H761        H  0.66528318  0.68345683  0.70857214     0.12500
C762        C  0.81415709  0.66782888  0.83206865    -0.23000
H763        H  0.82242994  0.72474486  0.81593117     0.08100
C764        C  0.77041124  0.78378544  0.79780772     0.04500
C765        C  0.78506109  0.81290203  0.79697604    -0.20200
C766        C  0.79590896  0.82470478  0.75872708    -0.12500
C767        C  0.79279224  0.80670272  0.72044796     0.13200
C768        C  0.77982462  0.77715623  0.72191393    -0.23000
C769        C  0.75535956  0.77305360  0.83829922    -0.06000
H770        H  0.78612061  0.82697349  0.82579260     0.14700
C771        C  0.80356223  0.81785307  0.67812116    -0.16200
H772        H  0.77873905  0.76313679  0.69307852     0.09000
H773        H  0.84386373  0.68141944  0.85611214     0.06900
H774        H  0.83336351  0.65200331  0.81602701     0.08100
H775        H  0.79400854  0.65612205  0.85279858     0.07100
H776        H  0.68956065  0.75025032  0.67048410     0.02000
H777        H  0.66030297  0.75935215  0.71374858     0.02500
H778        H  0.63828160  0.72880699  0.67594381     0.06000
H779        H  0.75656815  0.79072739  0.86342226     0.05000
H780        H  0.78123621  0.75571082  0.85701239    -0.00800
H781        H  0.71636351  0.76440350  0.82585240     0.00700
H782        H  0.83480503  0.80516520  0.67259714     0.04300
H783        H  0.81465318  0.84110272  0.68098162     0.06300
H784        H  0.76954542  0.81523949  0.64747723     0.07100
C785        C  0.45732451  0.50982528  0.46141348    -0.22500
C786        C  0.50668118  0.49945952  0.48002528     0.09500
C787        C  0.52389219  0.47736384  0.45699975     0.09900
C788        C  0.49106067  0.46568152  0.41624026    -0.17400
C789        C  0.44091130  0.47519031  0.39793323    -0.27800
C790        C  0.42403451  0.49794166  0.42055680     0.18200
C791        C  0.53946357  0.51113673  0.52462845     0.12200
C792        C  0.57672425  0.46576952  0.47588178    -0.12200
H793        H  0.50463652  0.44854366  0.39894291     0.12500
C794        C  0.37082999  0.50900909  0.40308499    -0.23000
H795        H  0.44459401  0.52688297  0.47950457     0.08100
C796        C  0.57008183  0.53570463  0.52662493     0.04500
C797        C  0.60140635  0.54545113  0.56969090    -0.20200
C798        C  0.60259234  0.53138905  0.61110976    -0.12500
C799        C  0.57186354  0.50649746  0.60877258     0.13200
C800        C  0.54092657  0.49667348  0.56545849    -0.23000
C801        C  0.56935659  0.55173228  0.48331926    -0.06000
H802        H  0.62468583  0.56447854  0.57095988     0.14700
C803        C  0.56981961  0.49068270  0.65145164    -0.16200
H804        H  0.51732994  0.47767861  0.56331072     0.09000
H805        H  0.36386248  0.52609948  0.42600874     0.06900
H806        H  0.34410224  0.49087959  0.40148235     0.08100
H807        H  0.36335439  0.51863791  0.36818321     0.07100
H808        H  0.58287153  0.45645142  0.51081816     0.02000
H809        H  0.60417578  0.48358871  0.47823404     0.02500
H810        H  0.58406817  0.44843501  0.45354208     0.06000
H811        H  0.59556403  0.57056843  0.49099092     0.05000
H812        H  0.53087177  0.55996219  0.46553799    -0.00800
H813        H  0.58067435  0.53689468  0.45971760     0.00700
H814        H  0.54240321  0.47243736  0.64286434     0.04300
H815        H  0.55810411  0.50587163  0.67439820     0.06300
H816        H  0.60725539  0.48138187  0.67010801     0.07100
C817        C  0.79960542  0.58157054  0.57264253    -0.22500
C818        C  0.78176388  0.60596506  0.54482308     0.09500
C819        C  0.76015742  0.62921806  0.56172294     0.09900
C820        C  0.75472363  0.62697923  0.60561393    -0.17400
C821        C  0.77030300  0.60198694  0.63288954    -0.27800
C822        C  0.79426427  0.57921470  0.61668385     0.18200
C823        C  0.78496210  0.60627931  0.49753336     0.12200
C824        C  0.74233795  0.65617350  0.53321021    -0.12200
H825        H  0.73683951  0.64453897  0.61818775     0.12500
C826        C  0.81193928  0.55182038  0.64425078    -0.23000
H827        H  0.81659197  0.56398257  0.55921034     0.08100
C828        C  0.83014467  0.61318816  0.48926173     0.04500
C829        C  0.83205981  0.61189922  0.44408493    -0.20200
C830        C  0.78983967  0.60366054  0.40659262    -0.12500
C831        C  0.74400678  0.59731469  0.41519586     0.13200
C832        C  0.74231316  0.59878591  0.46066717    -0.23000
C833        C  0.87632157  0.62194359  0.52817212    -0.06000
H834        H  0.86741864  0.61694340  0.43844575     0.14700
C835        C  0.69683453  0.58876716  0.37736551    -0.16200
H836        H  0.70772404  0.59362180  0.46777210     0.09000
H837        H  0.84161299  0.55712944  0.67721137     0.06900
H838        H  0.82819834  0.53608262  0.62533600     0.08100
H839        H  0.77986981  0.54098351  0.65163155     0.07100
H840        H  0.71232589  0.65045190  0.50069259     0.02000
H841        H  0.77424552  0.66636833  0.52469904     0.02500
H842        H  0.72686506  0.67243652  0.55193870     0.06000
H843        H  0.90846197  0.62707333  0.51557947     0.05000
H844        H  0.88788520  0.60397101  0.55361815    -0.00800
H845        H  0.86806567  0.64155535  0.54566641     0.00700
H846        H  0.66446703  0.58581358  0.39054083     0.04300
H847        H  0.70289149  0.56776043  0.36213293     0.06300
H848        H  0.68655116  0.60594144  0.35041172     0.07100
C849        C  0.80009791  0.57063246  0.97463190    -0.22500
C850        C  0.75611929  0.56792002  0.98675434     0.09500
C851        C  0.70953661  0.56354901  0.95218571     0.09900
C852        C  0.70809628  0.56164540  0.90595203    -0.17400
C853        C  0.75204597  0.56452332  0.89364387    -0.27800
C854        C  0.79876198  0.56897526  0.92840887     0.18200
C855        C  0.76019935  0.56844048  0.03615715     0.12200
C856        C  0.66154175  0.56098155  0.96415846    -0.12200
H857        H  0.67234413  0.55849109  0.87911867     0.12500
C858        C  0.84798607  0.57114123  0.91845456    -0.23000
H859        H  0.83582840  0.57368297  0.00156590     0.08100
C860        C  0.77226559  0.54310576  0.06319513     0.04500
C861        C  0.77699280  0.54455531  0.11016449    -0.20200
C862        C  0.77063022  0.57088248  0.13122701    -0.12500
C863        C  0.75821018  0.59637960  0.10361466     0.13200
C864        C  0.75299458  0.59468633  0.05631742    -0.23000
C865        C  0.78048794  0.51455910  0.04246983    -0.06000
H866        H  0.78626320  0.52485972  0.13058218     0.14700
C867        C  0.75169825  0.62558545  0.12336975    -0.16200
H868        H  0.74386962  0.61400240  0.03492079     0.09000
H869        H  0.87384025  0.55390725  0.93780798     0.06900
H870        H  0.86539910  0.59269122  0.92981536     0.08100
H871        H  0.84402631  0.56840436  0.88147269     0.07100
H872        H  0.65540765  0.58118630  0.98149387     0.02000
H873        H  0.66400350  0.54225563  0.98774487     0.02500
H874        H  0.62841442  0.55760757  0.93289961     0.06000
H875        H  0.78946816  0.49679109  0.06846488     0.05000
H876        H  0.81231233  0.51660418  0.02837970    -0.00800
H877        H  0.74600406  0.50833584  0.01416784     0.00700
H878        H  0.78664059  0.63169669  0.15125500     0.04300
H879        H  0.71953568  0.62483387  0.13716580     0.06300
H880        H  0.74374588  0.64299376  0.09678372     0.07100
C881        C  0.90599114  0.47829440  0.79513222    -0.22500
C882        C  0.89906790  0.46150178  0.75542109     0.09500
C883        C  0.85208423  0.46166435  0.72030318     0.09900
C884        C  0.81451804  0.48088988  0.72380375    -0.17400
C885        C  0.82328993  0.50000116  0.76152381    -0.27800
C886        C  0.86889609  0.49762075  0.79871928     0.18200
C887        C  0.94478654  0.44965142  0.74778614     0.12200
C888        C  0.84222019  0.44204550  0.67886899    -0.12200
H889        H  0.77922195  0.48204351  0.69585395     0.12500
C890        C  0.87945495  0.51555545  0.84212822    -0.23000
H891        H  0.94217121  0.47781637  0.82206222     0.08100
C892        C  0.97094541  0.46688273  0.72470912     0.04500
C893        C  0.01887877  0.45847869  0.72543333    -0.20200
C894        C  0.04223074  0.43346012  0.74905303    -0.12500
C895        C  0.01534894  0.41541270  0.77068694     0.13200
C896        C  0.96674531  0.42388934  0.76990628    -0.23000
C897        C  0.94958112  0.49508919  0.70126755    -0.06000
H898        H  0.03896231  0.47214649  0.70815943     0.14700
C899        C  0.03720092  0.38820166  0.79673005    -0.16200
H900        H  0.94673532  0.41100440  0.78822973     0.09000
H901        H  0.88392188  0.53876990  0.83440971     0.06900
H902        H  0.91480126  0.50877091  0.86888061     0.08100
H903        H  0.84829144  0.51296279  0.85698088     0.07100
H904        H  0.84675855  0.41904617  0.69047362     0.02000
H905        H  0.86903719  0.44672614  0.65973633     0.02500
H906        H  0.80348954  0.44483886  0.65465254     0.06000
H907        H  0.97574345  0.50603970  0.68574041     0.05000
H908        H  0.94236230  0.51023740  0.72674769    -0.00800
H909        H  0.91390034  0.49101015  0.67312362     0.00700
H910        H  0.03761271  0.39015323  0.83312610     0.04300
H911        H  0.07617941  0.38387712  0.79735576     0.06300
H912        H  0.01356744  0.36925406  0.78059044     0.07100
C913        C  0.45871367  0.56161101  0.72311121    -0.22500
C914        C  0.45780464  0.54441601  0.76079989     0.09500
C915        C  0.50190825  0.54150237  0.79889805     0.09900
C916        C  0.54682961  0.55411301  0.79701396    -0.17400
C917        C  0.54924605  0.56887095  0.75730184    -0.27800
C918        C  0.50392457  0.57383123  0.72069708     0.18200
C919        C  0.41322189  0.52577355  0.75646045     0.12200
C920        C  0.50230768  0.52353710  0.84036240    -0.12200
H921        H  0.58113386  0.55044690  0.82536590     0.12500
C922        C  0.50322581  0.58993036  0.67744966    -0.23000
H923        H  0.42455250  0.56375743  0.69405507     0.08100
C924        C  0.37372074  0.53432936  0.77279048     0.04500
C925        C  0.33427456  0.51470542  0.77008683    -0.20200
C926        C  0.33330440  0.48659013  0.75136718    -0.12500
C927        C  0.37272940  0.47852465  0.73372679     0.13200
C928        C  0.41187316  0.49826637  0.73657086    -0.23000
C929        C  0.37333664  0.56411105  0.79306460    -0.06000
H930        H  0.30445556  0.52128886  0.78343595     0.14700
C931        C  0.37440283  0.44937485  0.71156752    -0.16200
H932        H  0.44238093  0.49205241  0.72383651     0.09000
H933        H  0.46456407  0.59173046  0.65269940     0.06900
H934        H  0.52648569  0.57826885  0.65968018     0.08100
H935        H  0.51797860  0.61230384  0.68645210     0.07100
H936        H  0.49156614  0.50075721  0.82966399     0.02000
H937        H  0.47524313  0.53262473  0.85646941     0.02500
H938        H  0.54006310  0.52326876  0.86693247     0.06000
H939        H  0.33964996  0.56742918  0.80416328     0.05000
H940        H  0.37317166  0.58088993  0.76683408    -0.00800
H941        H  0.40724099  0.56713657  0.82363783     0.00700
H942        H  0.40647328  0.44780610  0.69770314     0.04300
H943        H  0.33935312  0.44591263  0.68224549     0.06300
H944        H  0.37913606  0.43174962  0.73745526     0.07100
loop_ 
_geom_bond_atom_site_label_1 
_geom_bond_atom_site_label_2 
_geom_bond_distance 
_geom_bond_site_symmetry_2 
_ccdc_geom_bond_type 
O1           C16   1.256       .  A
O1           Al9   1.873       .  S
C2           O12   1.267       .  A
C2            O3   1.272       .  A
C2          C821   1.475       .  S
O3           Al5   1.922       .  S
O4            C6   1.256       .  A
O4           Al5   1.876       .  S
Al5          O13   1.918       .  S
Al5          O15   1.925       .  S
Al5          O14   1.784       .  S
C6           O19   1.262       .  A
C6          C798   1.489       .  S
O7           C17   1.255       .  A
O7           Al9   1.908       .  S
O8           C21   1.267       .  A
O8          Al18   1.884       .  S
Al9          O22   1.934       .  S
Al9          O19   1.915       .  S
Al9          O14   1.779       .  S
O10          C17   1.254       .  A
O10         Al18   1.905       .  S
O11          C20   1.254       .  A
O11         Al18   1.900       .  S
O12         Al18   1.890       .  S
O13          C20   1.261       .  A
O14         Al18   1.785       .  S
O15          C16   1.264       .  A
C16         C917   1.490       .  S
C17         C885   1.485       .  S
C20         C757   1.489       .  S
C21          O22   1.273       .  A
C21         C853   1.469       .  S
O23          C38   1.258       .  A
O23         Al31   1.887       .  S
C24          O34   1.277       .  A
C24          O25   1.278       .  A
C24         C830   1.490       .  S
O25         Al27   1.920       .  S
O26          C28   1.257       .  A
O26         Al27   1.882       .  S
Al27         O35   1.941       .  S
Al27         O37   1.921       .  S
Al27         O36   1.784       .  S
C28          O41   1.261       .  A
C28         C670   1.478       .  S
O29          C39   1.252       .  A
O29         Al31   1.926       .  S
O30          C43   1.277       .  A
O30         Al40   1.900       .  S
Al31         O44   1.928       .  S
Al31         O41   1.905       .  S
Al31         O36   1.779       .  S
O32          C39   1.242       .  A
O32         Al40   1.877       .  S
O33          C42   1.244       .  A
O33         Al40   1.874       .  S
O34         Al40   1.907       .  S
O35          C42   1.258       .  A
O36         Al40   1.778       .  S
O37          C38   1.265       .  A
C38         C725   1.494       .  S
C39         C693   1.496       .  S
C42         C629   1.489       .  S
C43          O44   1.281       .  A
C43         C862   1.488       .  S
O45          C60   1.257       .  A
O45         Al53   1.872       .  S
C46          O56   1.262       .  A
C46          O47   1.273       .  A
C46         C597   1.482       .  S
O47         Al49   1.939       .  S
O48          C50   1.251       .  A
O48         Al49   1.881       .  S
Al49         O57   1.890       .  S
Al49         O59   1.922       .  S
Al49         O58   1.784       .  S
C50          O63   1.259       .  A
C50         C734   1.496       .  S
O51          C61   1.263       .  A
O51         Al53   1.920       .  S
O52          C65   1.270       .  A
O52         Al62   1.911       .  S
Al53         O66   1.919       .  S
Al53         O63   1.926       .  S
Al53         O58   1.789       .  S
O54          C61   1.260       .  A
O54         Al62   1.903       .  S
O55          C64   1.256       .  A
O55         Al62   1.921       .  S
O56         Al62   1.856       .  S
O57          C64   1.249       .  A
O58         Al62   1.791       .  S
O59          C60   1.267       .  A
C60         C565   1.465       .  S
C61         C789   1.487       .  S
C64         C533   1.488       .  S
C65          O66   1.268       .  A
C65         C702   1.472       .  S
O67          C82   1.261       .  A
O67         Al75   1.876       .  S
C68          O78   1.258       .  A
C68          O69   1.269       .  A
C68         C606   1.465       .  S
O69         Al71   1.928       .  S
O70          C72   1.251       .  A
O70         Al71   1.880       .  S
Al71         O79   1.893       .  S
Al71         O81   1.923       .  S
Al71         O80   1.789       .  S
C72          O85   1.258       .  A
C72         C926   1.497       .  S
O73          C83   1.266       .  A
O73         Al75   1.923       .  S
O74          C87   1.266       .  A
O74         Al84   1.912       .  S
Al75         O88   1.903       .  S
Al75         O85   1.916       .  S
Al75         O80   1.787       .  S
O76          C83   1.259       .  A
O76         Al84   1.890       .  S
O77          C86   1.253       .  A
O77         Al84   1.890       .  S
O78         Al84   1.854       .  S
O79          C86   1.252       .  A
O80         Al84   1.790       .  S
O81          C82   1.267       .  A
C82         C574   1.468       .  S
C83         C661   1.479       .  S
C86         C510   1.476       .  S
C87          O88   1.265       .  A
C87         C894   1.479       .  S
O89         C104   1.265       .  A
O89         Al97   1.882       .  S
C90         O100   1.259       .  A
C90          O91   1.265       .  A
C90         C373   1.471       .  S
O91         Al93   1.915       .  S
O92          C94   1.248       .  A
O92         Al93   1.885       .  S
Al93        O101   1.880       .  S
Al93        O103   1.932       .  S
Al93        O102   1.788       .  S
C94         O107   1.254       .  A
C94         C446   1.496       .  S
O95         C105   1.270       .  A
O95         Al97   1.915       .  S
O96         C109   1.263       .  A
O96        Al106   1.922       .  S
Al97        O110   1.903       .  S
Al97        O107   1.926       .  S
Al97        O102   1.798       .  S
O98         C105   1.264       .  A
O98        Al106   1.906       .  S
O99         C108   1.258       .  A
O99        Al106   1.912       .  S
O100       Al106   1.876       .  S
O101        C108   1.251       .  A
O102       Al106   1.797       .  S
O103        C104   1.272       .  A
C104        C414   1.467       .  S
C105        C350   1.485       .  S
C108        C638   1.497       .  S
C109        O110   1.258       .  A
C109        C469   1.485       .  S
O111        C126   1.262       .  A
O111       Al119   1.879       .  S
C112        O122   1.259       .  A
C112        O113   1.266       .  A
C112        C382   1.474       .  S
O113       Al115   1.926       .  S
O114        C116   1.253       .  A
O114       Al115   1.892       .  S
Al115       O123   1.899       .  S
Al115       O125   1.932       .  S
Al115       O124   1.790       .  S
C116        O129   1.256       .  A
C116        C277   1.495       .  S
O117        C127   1.264       .  A
O117       Al119   1.906       .  S
O118        C131   1.266       .  A
O118       Al128   1.929       .  S
Al119       O132   1.894       .  S
Al119       O129   1.911       .  S
Al119       O124   1.793       .  S
O120        C127   1.263       .  A
O120       Al128   1.907       .  S
O121        C130   1.257       .  A
O121       Al128   1.904       .  S
O122       Al128   1.870       .  S
O123        C130   1.255       .  A
O124       Al128   1.794       .  S
O125        C126   1.269       .  A
C126        C405   1.473       .  S
C127        C245   1.465       .  S
C130        C766   1.479       .  S
C131        O132   1.260       .  A
C131        C309   1.489       .  S
O133        C148   1.261       .  A
O133       Al141   1.902       .  S
C134        O144   1.270       .  A
C134        O135   1.257       .  A
C134        C213   1.489       .  S
O135       Al137   1.871       .  S
O136        C138   1.264       .  A
O136       Al137   1.902       .  S
Al137       O145   1.929       .  S
Al137       O147   1.932       .  S
Al137       O146   1.795       .  S
C138        O151   1.267       .  A
C138        C254   1.477       .  S
O139        C149   1.255       .  A
O139       Al141   1.920       .  S
O140        C153   1.273       .  A
O140       Al150   1.940       .  S
Al141       O154   1.875       .  S
Al141       O151   1.910       .  S
Al141       O146   1.791       .  S
O142        C149   1.250       .  A
O142       Al150   1.886       .  S
O143        C152   1.250       .  A
O143       Al150   1.876       .  S
O144       Al150   1.934       .  S
O145        C152   1.260       .  A
O146       Al150   1.784       .  S
O147        C148   1.269       .  A
C148        C437   1.490       .  S
C149        C478   1.496       .  S
C152        C542   1.501       .  S
C153        O154   1.264       .  A
C153        C190   1.486       .  S
O155        C170   1.257       .  A
O155       Al163   1.884       .  S
C156        O166   1.270       .  A
C156        O157   1.267       .  A
C156        C222   1.480       .  S
O157       Al159   1.917       .  S
O158        C160   1.256       .  A
O158       Al159   1.880       .  S
Al159       O167   1.923       .  S
Al159       O169   1.924       .  S
Al159       O168   1.788       .  S
C160        O173   1.261       .  A
C160        C341   1.468       .  S
O161        C171   1.258       .  A
O161       Al163   1.919       .  S
O162        C175   1.268       .  A
O162       Al172   1.903       .  S
Al163       O176   1.921       .  S
Al163       O173   1.905       .  S
Al163       O168   1.781       .  S
O164        C171   1.254       .  A
O164       Al172   1.898       .  S
O165        C174   1.252       .  A
O165       Al172   1.884       .  S
O166       Al172   1.911       .  S
O167        C174   1.263       .  A
O168       Al172   1.782       .  S
O169        C170   1.263       .  A
C170        C286   1.485       .  S
C171        C318   1.483   1_545  S
C174        C501   1.493       .  S
C175        O176   1.270       .  A
C175        C181   1.480       .  S
C177        C178   1.404       .  A
C177        C182   1.406       .  A
C177        H187   1.084       .  S
C178        C183   1.482       .  S
C178        C179   1.409       .  A
C179        C180   1.402       .  A
C179        C184   1.507       .  S
C180        C181   1.407       .  A
C180        H185   1.084       .  S
C181        C182   1.414       .  A
C182        C186   1.507       .  S
C183        C188   1.409       .  A
C183        C192   1.401       .  A
C184        H200   1.110       .  S
C184        H201   1.110       .  S
C184        H202   1.111       .  S
C186        H197   1.111       .  S
C186        H198   1.110       .  S
C186        H199   1.110       .  S
C188        C189   1.401       .  A
C188        C193   1.507       .  S
C189        C190   1.408       .  A
C189        H194   1.084       .  S
C190        C191   1.418       .  A
C191        C192   1.407       .  A
C191        C195   1.506       .  S
C192        H196   1.084       .  S
C193        H203   1.111   1_545  S
C193        H204   1.110       .  S
C193        H205   1.110       .  S
C195        H206   1.110       .  S
C195        H207   1.110       .  S
C195        H208   1.111       .  S
C209        C210   1.397       .  A
C209        C214   1.403       .  A
C209        H219   1.084   1_554  S
C210        C215   1.481   1_554  S
C210        C211   1.411       .  A
C211        C212   1.406       .  A
C211        C216   1.507       .  S
C212        C213   1.407       .  A
C212        H217   1.084       .  S
C213        C214   1.424       .  A
C214        C218   1.509       .  S
C215        C220   1.412       .  A
C215        C224   1.399       .  A
C216        H232   1.110       .  S
C216        H233   1.109       .  S
C216        H234   1.111       .  S
C218        H229   1.109       .  S
C218        H230   1.111       .  S
C218        H231   1.111       .  S
C220        C221   1.404       .  A
C220        C225   1.507       .  S
C221        C222   1.404       .  A
C221        H226   1.084       .  S
C222        C223   1.419       .  A
C223        C224   1.404       .  A
C223        C227   1.510       .  S
C224        H228   1.084       .  S
C225        H235   1.111       .  S
C225        H236   1.110       .  S
C225        H237   1.109       .  S
C227        H238   1.111       .  S
C227        H239   1.111       .  S
C227        H240   1.108       .  S
C241        C242   1.400   1_565  A
C241        C246   1.398       .  A
C241        H251   1.085   1_556  S
C242        C247   1.479   1_556  S
C242        C243   1.413       .  A
C243        C244   1.404       .  A
C243        C248   1.507       .  S
C244        C245   1.401   1_545  A
C244        H249   1.084       .  S
C245        C246   1.412       .  A
C246        C250   1.506       .  S
C247        C252   1.408       .  A
C247        C256   1.403   1_655  A
C248        H264   1.109   1_655  S
C248        H265   1.110       .  S
C248        H266   1.111       .  S
C250        H261   1.110       .  S
C250        H262   1.110       .  S
C250        H263   1.107       .  S
C252        C253   1.398   1_655  A
C252        C257   1.508       .  S
C253        C254   1.408       .  A
C253        H258   1.084   1_455  S
C254        C255   1.417       .  A
C255        C256   1.405       .  A
C255        C259   1.508       .  S
C256        H260   1.085   1_545  S
C257        H267   1.111       .  S
C257        H268   1.109       .  S
C257        H269   1.110       .  S
C259        H270   1.110   1_545  S
C259        H271   1.104       .  S
C259        H272   1.111       .  S
C273        C274   1.401   1_565  A
C273        C278   1.403       .  A
C273        H283   1.084       .  S
C274        C279   1.490       .  S
C274        C275   1.411       .  A
C275        C276   1.409       .  A
C275        C280   1.506       .  S
C276        C277   1.410   1_545  A
C276        H281   1.084       .  S
C277        C278   1.420       .  A
C278        C282   1.508       .  S
C279        C284   1.413       .  A
C279        C288   1.403       .  A
C280        H296   1.109       .  S
C280        H297   1.110       .  S
C280        H298   1.111       .  S
C282        H293   1.110       .  S
C282        H294   1.111       .  S
C282        H295   1.107       .  S
C284        C285   1.405       .  A
C284        C289   1.507       .  S
C285        C286   1.405       .  A
C285        H290   1.084       .  S
C286        C287   1.418       .  A
C287        C288   1.407       .  A
C287        C291   1.507       .  S
C288        H292   1.084       .  S
C289        H299   1.111       .  S
C289        H300   1.109       .  S
C289        H301   1.110       .  S
C291        H302   1.108       .  S
C291        H303   1.110       .  S
C291        H304   1.111       .  S
C305        C306   1.407       .  A
C305        C310   1.414   1_455  A
C305        H315   1.084       .  S
C306        C311   1.487       .  S
C306        C307   1.409       .  A
C307        C308   1.398   1_455  A
C307        C312   1.511   1_565  S
C308        C309   1.408       .  A
C308        H313   1.085       .  S
C309        C310   1.418       .  A
C310        C314   1.506       .  S
C311        C316   1.413       .  A
C311        C320   1.400       .  A
C312        H328   1.110       .  S
C312        H329   1.108       .  S
C312        H330   1.111       .  S
C314        H325   1.110   1_655  S
C314        H326   1.111       .  S
C314        H327   1.105       .  S
C316        C317   1.409       .  A
C316        C321   1.506       .  S
C317        C318   1.405       .  A
C317        H322   1.084       .  S
C318        C319   1.419       .  A
C319        C320   1.403       .  A
C319        C323   1.509   1_565  S
C320        H324   1.085       .  S
C321        H331   1.111       .  S
C321        H332   1.110       .  S
C321        H333   1.109       .  S
C323        H334   1.111   1_545  S
C323        H335   1.108       .  S
C323        H336   1.110       .  S
C337        C338   1.404       .  A
C337        C342   1.402       .  A
C337        H347   1.084   1_556  S
C338        C343   1.482   1_546  S
C338        C339   1.414       .  A
C339        C340   1.400       .  A
C339        C344   1.509   1_545  S
C340        C341   1.401       .  A
C340        H345   1.085       .  S
C341        C342   1.415       .  A
C342        C346   1.509       .  S
C343        C348   1.413   1_565  A
C343        C352   1.397       .  A
C344        H360   1.108       .  S
C344        H361   1.110   1_565  S
C344        H362   1.111       .  S
C346        H357   1.110       .  S
C346        H358   1.110       .  S
C346        H359   1.107       .  S
C348        C349   1.406       .  A
C348        C353   1.507       .  S
C349        C350   1.406   1_545  A
C349        H354   1.084       .  S
C350        C351   1.423       .  A
C351        C352   1.398       .  A
C351        C355   1.511       .  S
C352        H356   1.084   1_554  S
C353        H363   1.111       .  S
C353        H364   1.109       .  S
C353        H365   1.110       .  S
C355        H366   1.109       .  S
C355        H367   1.110       .  S
C355        H368   1.111       .  S
C369        C370   1.400       .  A
C369        C374   1.403       .  A
C369        H379   1.084       .  S
C370        C375   1.478   1_554  S
C370        C371   1.411       .  A
C371        C372   1.401       .  A
C371        C376   1.507       .  S
C372        C373   1.400       .  A
C372        H377   1.081       .  S
C373        C374   1.416       .  A
C374        C378   1.508       .  S
C375        C380   1.408       .  A
C375        C384   1.402       .  A
C376        H392   1.110       .  S
C376        H393   1.110       .  S
C376        H394   1.111       .  S
C378        H389   1.111       .  S
C378        H390   1.110       .  S
C378        H391   1.108       .  S
C380        C381   1.401       .  A
C380        C385   1.506       .  S
C381        C382   1.404       .  A
C381        H386   1.084       .  S
C382        C383   1.413       .  A
C383        C384   1.404       .  A
C383        C387   1.505       .  S
C384        H388   1.084       .  S
C385        H395   1.111       .  S
C385        H396   1.110   1_556  S
C385        H397   1.110   1_556  S
C387        H398   1.111       .  S
C387        H399   1.109       .  S
C387        H400   1.111       .  S
C401        C402   1.402       .  A
C401        C406   1.402       .  A
C401        H411   1.084       .  S
C402        C407   1.486       .  S
C402        C403   1.415       .  A
C403        C404   1.405       .  A
C403        C408   1.507       .  S
C404        C405   1.402       .  A
C404        H409   1.084       .  S
C405        C406   1.416       .  A
C406        C410   1.510       .  S
C407        C412   1.416       .  A
C407        C416   1.402       .  A
C408        H424   1.109       .  S
C408        H425   1.110       .  S
C408        H426   1.111       .  S
C410        H421   1.110       .  S
C410        H422   1.110       .  S
C410        H423   1.107       .  S
C412        C413   1.406       .  A
C412        C417   1.507       .  S
C413        C414   1.400       .  A
C413        H418   1.084       .  S
C414        C415   1.414       .  A
C415        C416   1.401       .  A
C415        C419   1.510       .  S
C416        H420   1.084       .  S
C417        H427   1.111       .  S
C417        H428   1.109       .  S
C417        H429   1.110       .  S
C419        H430   1.110       .  S
C419        H431   1.109       .  S
C419        H432   1.111       .  S
C433        C434   1.406       .  A
C433        C438   1.413       .  A
C433        H443   1.084       .  S
C434        C439   1.494       .  S
C434        C435   1.413       .  A
C435        C436   1.405   1_655  A
C435        C440   1.508       .  S
C436        C437   1.407       .  A
C436        H441   1.085       .  S
C437        C438   1.416   1_455  A
C438        C442   1.506       .  S
C439        C444   1.413       .  A
C439        C448   1.401       .  A
C440        H456   1.110   1_545  S
C440        H457   1.108       .  S
C440        H458   1.111   1_655  S
C442        H453   1.111       .  S
C442        H454   1.110   1_655  S
C442        H455   1.110   1_655  S
C444        C445   1.414       .  A
C444        C449   1.506       .  S
C445        C446   1.410   1_545  A
C445        H450   1.084       .  S
C446        C447   1.419       .  A
C447        C448   1.405   1_565  A
C447        C451   1.506       .  S
C448        H452   1.084       .  S
C449        H459   1.111       .  S
C449        H460   1.110       .  S
C449        H461   1.108       .  S
C451        H462   1.111       .  S
C451        H463   1.110       .  S
C451        H464   1.109       .  S
C465        C466   1.404       .  A
C465        C470   1.411       .  A
C465        H475   1.084       .  S
C466        C471   1.492       .  S
C466        C467   1.412       .  A
C467        C468   1.405       .  A
C467        C472   1.507       .  S
C468        C469   1.405       .  A
C468        H473   1.084       .  S
C469        C470   1.416       .  A
C470        C474   1.506       .  S
C471        C476   1.412       .  A
C471        C480   1.402       .  A
C472        H488   1.110       .  S
C472        H489   1.110   1_565  S
C472        H490   1.111       .  S
C474        H485   1.110       .  S
C474        H486   1.111       .  S
C474        H487   1.110       .  S
C476        C477   1.405   1_565  A
C476        C481   1.508       .  S
C477        C478   1.407       .  A
C477        H482   1.084       .  S
C478        C479   1.422   1_545  A
C479        C480   1.412       .  A
C479        C483   1.507       .  S
C480        H484   1.084       .  S
C481        H491   1.111   1_565  S
C481        H492   1.110       .  S
C481        H493   1.110   1_565  S
C483        H494   1.111       .  S
C483        H495   1.110       .  S
C483        H496   1.111       .  S
C497        C498   1.395       .  A
C497        C502   1.399       .  A
C497        H507   1.085       .  S
C498        C503   1.484       .  S
C498        C499   1.411       .  A
C499        C500   1.408       .  A
C499        C504   1.506       .  S
C500        C501   1.408       .  A
C500        H505   1.083       .  S
C501        C502   1.427       .  A
C502        C506   1.511       .  S
C503        C508   1.410       .  A
C503        C512   1.405       .  A
C504        H520   1.109       .  S
C504        H521   1.111       .  S
C504        H522   1.111       .  S
C506        H517   1.111       .  S
C506        H518   1.111       .  S
C506        H519   1.110       .  S
C508        C509   1.399       .  A
C508        C513   1.509       .  S
C509        C510   1.405       .  A
C509        H514   1.085       .  S
C510        C511   1.414       .  A
C511        C512   1.407       .  A
C511        C515   1.506       .  S
C512        H516   1.084       .  S
C513        H523   1.111       .  S
C513        H524   1.108       .  S
C513        H525   1.110       .  S
C515        H526   1.111       .  S
C515        H527   1.108       .  S
C515        H528   1.110       .  S
C529        C530   1.403       .  A
C529        C534   1.408       .  A
C529        H539   1.084       .  S
C530        C535   1.490       .  S
C530        C531   1.412       .  A
C531        C532   1.407       .  A
C531        C536   1.506       .  S
C532        C533   1.407       .  A
C532        H537   1.084       .  S
C533        C534   1.415       .  A
C534        C538   1.503       .  S
C535        C540   1.412       .  A
C535        C544   1.396       .  A
C536        H552   1.110       .  S
C536        H553   1.110       .  S
C536        H554   1.111       .  S
C538        H549   1.111       .  S
C538        H550   1.110       .  S
C538        H551   1.109       .  S
C540        C541   1.412       .  A
C540        C545   1.505       .  S
C541        C542   1.409       .  A
C541        H546   1.084       .  S
C542        C543   1.428       .  A
C543        C544   1.404       .  A
C543        C547   1.510       .  S
C544        H548   1.084       .  S
C545        H555   1.111       .  S
C545        H556   1.110       .  S
C545        H557   1.110       .  S
C547        H558   1.111       .  S
C547        H559   1.110       .  S
C547        H560   1.109       .  S
C561        C562   1.398       .  A
C561        C566   1.399       .  A
C561        H571   1.085       .  S
C562        C567   1.476   1_554  S
C562        C563   1.412       .  A
C563        C564   1.403       .  A
C563        C568   1.506       .  S
C564        C565   1.401       .  A
C564        H569   1.084       .  S
C565        C566   1.415       .  A
C566        C570   1.505       .  S
C567        C572   1.412       .  A
C567        C576   1.398       .  A
C568        H584   1.110   1_554  S
C568        H585   1.110       .  S
C568        H586   1.111       .  S
C570        H581   1.110       .  S
C570        H582   1.108       .  S
C570        H583   1.108       .  S
C572        C573   1.405       .  A
C572        C577   1.506   1_556  S
C573        C574   1.402       .  A
C573        H578   1.084       .  S
C574        C575   1.416       .  A
C575        C576   1.397       .  A
C575        C579   1.509       .  S
C576        H580   1.085       .  S
C577        H587   1.111   1_554  S
C577        H588   1.110       .  S
C577        H589   1.110       .  S
C579        H590   1.111       .  S
C579        H591   1.107       .  S
C579        H592   1.110       .  S
C593        C594   1.401       .  A
C593        C598   1.405       .  A
C593        H603   1.084       .  S
C594        C599   1.468       .  S
C594        C595   1.404       .  A
C595        C596   1.393       .  A
C595        C600   1.509       .  S
C596        C597   1.410       .  A
C596        H601   1.084       .  S
C597        C598   1.418       .  A
C598        C602   1.507       .  S
C599        C604   1.406       .  A
C599        C608   1.402       .  A
C600        H616   1.110       .  S
C600        H617   1.110       .  S
C600        H618   1.111       .  S
C602        H613   1.111       .  S
C602        H614   1.111       .  S
C602        H615   1.109       .  S
C604        C605   1.393       .  A
C604        C609   1.508       .  S
C605        C606   1.404       .  A
C605        H610   1.085       .  S
C606        C607   1.415       .  A
C607        C608   1.403       .  A
C607        C611   1.507       .  S
C608        H612   1.084       .  S
C609        H619   1.111       .  S
C609        H620   1.110       .  S
C609        H621   1.110       .  S
C611        H622   1.110       .  S
C611        H623   1.105       .  S
C611        H624   1.110       .  S
C625        C626   1.396       .  A
C625        C630   1.402       .  A
C625        H635   1.084       .  S
C626        C631   1.491       .  S
C626        C627   1.417       .  A
C627        C628   1.414       .  A
C627        C632   1.505       .  S
C628        C629   1.404       .  A
C628        H633   1.084       .  S
C629        C630   1.423       .  A
C630        C634   1.509       .  S
C631        C636   1.412       .  A
C631        C640   1.401       .  A
C632        H648   1.110       .  S
C632        H649   1.108       .  S
C632        H650   1.111       .  S
C634        H645   1.108       .  S
C634        H646   1.111       .  S
C634        H647   1.109       .  S
C636        C637   1.408       .  A
C636        C641   1.507       .  S
C637        C638   1.410       .  A
C637        H642   1.084       .  S
C638        C639   1.423       .  A
C639        C640   1.408       .  A
C639        C643   1.509       .  S
C640        H644   1.084       .  S
C641        H651   1.111       .  S
C641        H652   1.110       .  S
C641        H653   1.108       .  S
C643        H654   1.111       .  S
C643        H655   1.109       .  S
C643        H656   1.111       .  S
C657        C658   1.404       .  A
C657        C662   1.407       .  A
C657        H667   1.084       .  S
C658        C663   1.478       .  S
C658        C659   1.406       .  A
C659        C660   1.397       .  A
C659        C664   1.509   1_455  S
C660        C661   1.409       .  A
C660        H665   1.084       .  S
C661        C662   1.417       .  A
C662        C666   1.508       .  S
C663        C668   1.407   1_455  A
C663        C672   1.402   1_455  A
C664        H680   1.110       .  S
C664        H681   1.109       .  S
C664        H682   1.111       .  S
C666        H677   1.110       .  S
C666        H678   1.110       .  S
C666        H679   1.104       .  S
C668        C669   1.400       .  A
C668        C673   1.507       .  S
C669        C670   1.407       .  A
C669        H674   1.084       .  S
C670        C671   1.419       .  A
C671        C672   1.405       .  A
C671        C675   1.509       .  S
C672        H676   1.085   1_655  S
C673        H683   1.110       .  S
C673        H684   1.110   1_655  S
C673        H685   1.109       .  S
C675        H686   1.111   1_655  S
C675        H687   1.105       .  S
C675        H688   1.110       .  S
C689        C690   1.397       .  A
C689        C694   1.401       .  A
C689        H699   1.085       .  S
C690        C695   1.486       .  S
C690        C691   1.411       .  A
C691        C692   1.411       .  A
C691        C696   1.506       .  S
C692        C693   1.410       .  A
C692        H697   1.084       .  S
C693        C694   1.426       .  A
C694        C698   1.510       .  S
C695        C700   1.413       .  A
C695        C704   1.405       .  A
C696        H712   1.110       .  S
C696        H713   1.107       .  S
C696        H714   1.111       .  S
C698        H709   1.108       .  S
C698        H710   1.111       .  S
C698        H711   1.110       .  S
C700        C701   1.404       .  A
C700        C705   1.509       .  S
C701        C702   1.402       .  A
C701        H706   1.085       .  S
C702        C703   1.413       .  A
C703        C704   1.406       .  A
C703        C707   1.507       .  S
C704        H708   1.084       .  S
C705        H715   1.111       .  S
C705        H716   1.110       .  S
C705        H717   1.107       .  S
C707        H718   1.110       .  S
C707        H719   1.108       .  S
C707        H720   1.110       .  S
C721        C722   1.402       .  A
C721        C726   1.410       .  A
C721        H731   1.084       .  S
C722        C727   1.492       .  S
C722        C723   1.412       .  A
C723        C724   1.407   1_455  A
C723        C728   1.507       .  S
C724        C725   1.408       .  A
C724        H729   1.084       .  S
C725        C726   1.420   1_655  A
C726        C730   1.507       .  S
C727        C732   1.411       .  A
C727        C736   1.401       .  A
C728        H744   1.110       .  S
C728        H745   1.109       .  S
C728        H746   1.111   1_455  S
C730        H741   1.111       .  S
C730        H742   1.110       .  S
C730        H743   1.110       .  S
C732        C733   1.411       .  A
C732        C737   1.505       .  S
C733        C734   1.409       .  A
C733        H738   1.084       .  S
C734        C735   1.422       .  A
C735        C736   1.407       .  A
C735        C739   1.509       .  S
C736        H740   1.084       .  S
C737        H747   1.111       .  S
C737        H748   1.110       .  S
C737        H749   1.110       .  S
C739        H750   1.111       .  S
C739        H751   1.111       .  S
C739        H752   1.109       .  S
C753        C754   1.402       .  A
C753        C758   1.405       .  A
C753        H763   1.084       .  S
C754        C759   1.494       .  S
C754        C755   1.414       .  A
C755        C756   1.409       .  A
C755        C760   1.506       .  S
C756        C757   1.406       .  A
C756        H761   1.084       .  S
C757        C758   1.419       .  A
C758        C762   1.509       .  S
C759        C764   1.413       .  A
C759        C768   1.409       .  A
C760        H776   1.109       .  S
C760        H777   1.110       .  S
C760        H778   1.111       .  S
C762        H773   1.111       .  S
C762        H774   1.109       .  S
C762        H775   1.111       .  S
C764        C765   1.403       .  A
C764        C769   1.509       .  S
C765        C766   1.404       .  A
C765        H770   1.085       .  S
C766        C767   1.412       .  A
C767        C768   1.411       .  A
C767        C771   1.506       .  S
C768        H772   1.084       .  S
C769        H779   1.111       .  S
C769        H780   1.108       .  S
C769        H781   1.110       .  S
C771        H782   1.110       .  S
C771        H783   1.109       .  S
C771        H784   1.110       .  S
C785        C786   1.403       .  A
C785        C790   1.409       .  A
C785        H795   1.084       .  S
C786        C791   1.480       .  S
C786        C787   1.406       .  A
C787        C788   1.399       .  A
C787        C792   1.508       .  S
C788        C789   1.409       .  A
C788        H793   1.084       .  S
C789        C790   1.417       .  A
C790        C794   1.506       .  S
C791        C796   1.407       .  A
C791        C800   1.401       .  A
C792        H808   1.110       .  S
C792        H809   1.110       .  S
C792        H810   1.111       .  S
C794        H805   1.111       .  S
C794        H806   1.111       .  S
C794        H807   1.110       .  S
C796        C797   1.402       .  A
C796        C801   1.507       .  S
C797        C798   1.410       .  A
C797        H802   1.084       .  S
C798        C799   1.420       .  A
C799        C800   1.406       .  A
C799        C803   1.508       .  S
C800        H804   1.084       .  S
C801        H811   1.111       .  S
C801        H812   1.110       .  S
C801        H813   1.110       .  S
C803        H814   1.111       .  S
C803        H815   1.111       .  S
C803        H816   1.110       .  S
C817        C818   1.401       .  A
C817        C822   1.402       .  A
C817        H827   1.084       .  S
C818        C823   1.474       .  S
C818        C819   1.407       .  A
C819        C820   1.398       .  A
C819        C824   1.507       .  S
C820        C821   1.406       .  A
C820        H825   1.084       .  S
C821        C822   1.417       .  A
C822        C826   1.509       .  S
C823        C828   1.404       .  A
C823        C832   1.400       .  A
C824        H840   1.110       .  S
C824        H841   1.110       .  S
C824        H842   1.111       .  S
C826        H837   1.110       .  S
C826        H838   1.111       .  S
C826        H839   1.111       .  S
C828        C829   1.397       .  A
C828        C833   1.507       .  S
C829        C830   1.412       .  A
C829        H834   1.083       .  S
C830        C831   1.420       .  A
C831        C832   1.405       .  A
C831        C835   1.506       .  S
C832        H836   1.084       .  S
C833        H843   1.111       .  S
C833        H844   1.110       .  S
C833        H845   1.110       .  S
C835        H846   1.111       .  S
C835        H847   1.109       .  S
C835        H848   1.110       .  S
C849        C850   1.400       .  A
C849        C854   1.401       .  A
C849        H859   1.085   1_556  S
C850        C855   1.475   1_556  S
C850        C851   1.409       .  A
C851        C852   1.401       .  A
C851        C856   1.506       .  S
C852        C853   1.403       .  A
C852        H857   1.084       .  S
C853        C854   1.415       .  A
C854        C858   1.507       .  S
C855        C860   1.406       .  A
C855        C864   1.399       .  A
C856        H872   1.110       .  S
C856        H873   1.110       .  S
C856        H874   1.111       .  S
C858        H869   1.111       .  S
C858        H870   1.110       .  S
C858        H871   1.105       .  S
C860        C861   1.398       .  A
C860        C865   1.508       .  S
C861        C862   1.410       .  A
C861        H866   1.084       .  S
C862        C863   1.422       .  A
C863        C864   1.406       .  A
C863        C867   1.508       .  S
C864        H868   1.084       .  S
C865        H875   1.111       .  S
C865        H876   1.110       .  S
C865        H877   1.110       .  S
C867        H878   1.111       .  S
C867        H879   1.110       .  S
C867        H880   1.111       .  S
C881        C882   1.398       .  A
C881        C886   1.400       .  A
C881        H891   1.085       .  S
C882        C887   1.479       .  S
C882        C883   1.410       .  A
C883        C884   1.407       .  A
C883        C888   1.506       .  S
C884        C885   1.407       .  A
C884        H889   1.084       .  S
C885        C886   1.420       .  A
C886        C890   1.508       .  S
C887        C892   1.409       .  A
C887        C896   1.406       .  A
C888        H904   1.110       .  S
C888        H905   1.109       .  S
C888        H906   1.111       .  S
C890        H901   1.109       .  S
C890        H902   1.111       .  S
C890        H903   1.111       .  S
C892        C893   1.393   1_655  A
C892        C897   1.512       .  S
C893        C894   1.406       .  A
C893        H898   1.084       .  S
C894        C895   1.416       .  A
C895        C896   1.411   1_455  A
C895        C899   1.506       .  S
C896        H900   1.084       .  S
C897        H907   1.111       .  S
C897        H908   1.110       .  S
C897        H909   1.108       .  S
C899        H910   1.110       .  S
C899        H911   1.106       .  S
C899        H912   1.110       .  S
C913        C914   1.402       .  A
C913        C918   1.409       .  A
C913        H923   1.084       .  S
C914        C919   1.485       .  S
C914        C915   1.410       .  A
C915        C916   1.403       .  A
C915        C920   1.507       .  S
C916        C917   1.408       .  A
C916        H921   1.084       .  S
C917        C918   1.420       .  A
C918        C922   1.507       .  S
C919        C924   1.408       .  A
C919        C928   1.399       .  A
C920        H936   1.110       .  S
C920        H937   1.109       .  S
C920        H938   1.111       .  S
C922        H933   1.111       .  S
C922        H934   1.111       .  S
C922        H935   1.110       .  S
C924        C925   1.408       .  A
C924        C929   1.505       .  S
C925        C926   1.411       .  A
C925        H930   1.083       .  S
C926        C927   1.424       .  A
C927        C928   1.404       .  A
C927        C931   1.510       .  S
C928        H932   1.085       .  S
C929        H939   1.111       .  S
C929        H940   1.110       .  S
C929        H941   1.109       .  S
C931        H942   1.111       .  S
C931        H943   1.111       .  S
C931        H944   1.110       .  S
