geometry optimzed in LAMMPS
_audit_creation_date              2020-12-01 
_audit_creation_method            'lammps2cif' 
_symmetry_space_group_name_H-M    'P1' 
_symmetry_Int_Tables_number       1 
_symmetry_cell_setting            triclinic 
loop_ 
_symmetry_equiv_pos_as_xyz 
  x,y,z 
_cell_length_a                    35.30856258 
_cell_length_b                    40.003190127292584 
_cell_length_c                    43.239221907527906 
_cell_angle_alpha                 90.49344109399567 
_cell_angle_beta                  95.63135753093411 
_cell_angle_gamma                 90.0016846910092 
loop_ 
_atom_site_label 
_atom_site_type_symbol 
_atom_site_fract_x 
_atom_site_fract_y 
_atom_site_fract_z 
_atom_site_charge 
O1          O  0.78783950  0.33541543  0.38652041    -0.82200
C2          C  0.84214579  0.25394769  0.29786553     0.97100
O3          O  0.85868589  0.28163534  0.30568598    -0.71300
O4          O  0.80583194  0.32430816  0.30723852    -0.74900
Al5        Al  0.84507024  0.31443427  0.33615632     1.49000
C6          C  0.77041346  0.32519358  0.30665409     0.92400
O7          O  0.74746821  0.25504871  0.35236392    -0.81100
O8          O  0.84561921  0.25152711  0.40249243    -0.74700
Al9        Al  0.77352154  0.29423045  0.36834465     1.90100
O10         O  0.79121056  0.21896328  0.36609768    -0.73800
O11         O  0.89083496  0.25464398  0.35752142    -0.73600
O12         O  0.82939673  0.23551457  0.31800035    -0.79300
O13         O  0.89032852  0.30832988  0.36356161    -0.77500
O14         O  0.81824271  0.28469346  0.35511071    -1.13600
O15         O  0.83340613  0.35343283  0.36060166    -0.72800
C16         C  0.80821106  0.35900006  0.37885706     0.97900
C17         C  0.75656070  0.22567565  0.35941953     0.94300
Al18       Al  0.83754712  0.24373632  0.36052624     1.55600
O19         O  0.75352574  0.31541072  0.32963129    -0.77400
C20         C  0.90902485  0.28158571  0.36336190     0.98500
C21         C  0.82082143  0.26092105  0.41986312     0.93300
O22         O  0.78944389  0.27443270  0.40891876    -0.82800
O23         O  0.70319092  0.44951817  0.09544087    -0.82200
C24         C  0.64485966  0.46527855  0.20493572     0.97100
O25         O  0.65660821  0.48500539  0.18528653    -0.71300
O26         O  0.69630234  0.50382580  0.13925545    -0.74900
Al27       Al  0.65085942  0.47828375  0.14215954     1.49000
C28         C  0.73070368  0.49836608  0.14766213     0.92400
O29         O  0.73474220  0.40698055  0.17491586    -0.81100
O30         O  0.65355161  0.36997281  0.13640198    -0.74700
Al31       Al  0.71680781  0.42909941  0.13604747     1.90100
O32         O  0.68060310  0.39317579  0.19247196    -0.73800
O33         O  0.59800382  0.41407225  0.13636135    -0.73600
O34         O  0.62919740  0.43735006  0.19653035    -0.79300
O35         O  0.59755259  0.46753910  0.14292890    -0.77500
O36         O  0.67052175  0.43736441  0.14724218    -1.13600
O37         O  0.64592890  0.47210054  0.09915195    -0.72800
C38         C  0.67238814  0.46291573  0.08310540     0.97900
C39         C  0.71608375  0.39366261  0.19534040     0.94300
Al40       Al  0.64251340  0.40638426  0.16381318     1.55600
O41         O  0.74118968  0.46891392  0.15340656    -0.77400
C42         C  0.57973707  0.44096430  0.13568192     0.98500
C43         C  0.68054341  0.36527685  0.11968195     0.93300
O44         O  0.70445932  0.38792073  0.11687531    -0.82800
O45         O  0.68718570  0.08452719  0.36705457    -0.82200
C46         C  0.63554821  0.00455458  0.45743661     0.97100
O47         O  0.61898594  0.03219878  0.45070232    -0.71300
O48         O  0.67432063  0.07320824  0.45087210    -0.74900
Al49       Al  0.63431091  0.06504687  0.42137288     1.49000
C50         C  0.70912551  0.07735032  0.44900765     0.92400
O51         O  0.73073284  0.00680508  0.40445466    -0.81100
O52         O  0.63320384  0.00071515  0.35194571    -0.74700
Al53       Al  0.70422990  0.04494527  0.38683228     1.90100
O54         O  0.68781925  0.46922850  0.38982307    -0.73800
O55         O  0.58796603  0.00612309  0.39669881    -0.73600
O56         O  0.64776346  0.48222579  0.43593572    -0.79300
O57         O  0.58900443  0.06040891  0.39383785    -0.77500
O58         O  0.66000838  0.03526631  0.40074459    -1.13600
O59         O  0.64737302  0.10421377  0.39819315    -0.72800
C60         C  0.66896287  0.10869723  0.37686108     0.97900
C61         C  0.72199497  0.47696118  0.39795086     0.94300
Al62       Al  0.64059545  0.99432833  0.39459308     1.55600
O63         O  0.72412235  0.06920433  0.42443882    -0.77400
C64         C  0.57054592  0.03342210  0.39164001     0.98500
C65         C  0.65876172  0.00886992  0.33506069     0.93300
O66         O  0.68981271  0.02250717  0.34687760    -0.82800
O67         O  0.79558438  0.20576000  0.15490111    -0.82200
C68         C  0.85774071  0.22450145  0.04713386     0.97100
O69         O  0.84224811  0.24158846  0.06695464    -0.71300
O70         O  0.79879332  0.25611190  0.11089120    -0.74900
Al71       Al  0.84685411  0.23295694  0.10886037     1.49000
C72         C  0.76474774  0.24792138  0.10241844     0.92400
O73         O  0.76691881  0.15449939  0.07860508    -0.81100
O74         O  0.83771998  0.12238500  0.10206294    -0.74700
Al75       Al  0.78455663  0.18136243  0.11563707     1.90100
O76         O  0.81508386  0.15743182  0.05014161    -0.73800
O77         O  0.89804713  0.16621448  0.11053204    -0.73600
O78         O  0.87276994  0.19641536  0.05436408    -0.79300
O79         O  0.89959393  0.22063718  0.10888371    -0.77500
O80         O  0.82813259  0.19225796  0.10183055    -1.13600
O81         O  0.85255932  0.22620044  0.15095783    -0.72800
C82         C  0.82608773  0.21966572  0.16713636     0.97900
C83         C  0.78147226  0.14914919  0.05316224     0.94300
Al84       Al  0.85417112  0.16290498  0.08127295     1.55600
O85         O  0.75673635  0.21777810  0.09629125    -0.77400
C86         C  0.91698441  0.19315794  0.11268135     0.98500
C87         C  0.81773998  0.11875054  0.12464676     0.93300
O88         O  0.80575145  0.14446038  0.13730414    -0.82800
O89         O  0.19375445  0.32024875  0.35304745    -0.82200
C90         C  0.14065116  0.25019723  0.45007367     0.97100
O91         O  0.12545945  0.27789413  0.44119480    -0.71300
O92         O  0.18040669  0.31835424  0.43759266    -0.74900
Al93       Al  0.14078713  0.30752985  0.40879776     1.49000
C94         C  0.21502516  0.32281832  0.43533301     0.92400
O95         O  0.23733194  0.24773706  0.39801943    -0.81100
O96         O  0.14021921  0.23696370  0.34494605    -0.74700
Al97       Al  0.21106103  0.28362004  0.37672185     1.90100
O98         O  0.19369759  0.21020801  0.38636689    -0.73800
O99         O  0.09393931  0.24705913  0.38893978    -0.73600
O100        O  0.15362614  0.23017956  0.43111488    -0.79300
O101        O  0.09546407  0.30054130  0.38156669    -0.77500
O102        O  0.16657705  0.27563122  0.39110260    -1.13600
O103        O  0.15453840  0.34409170  0.38213360    -0.72800
C104        C  0.17671083  0.34591489  0.36077350     0.97900
C105        C  0.22809884  0.21766760  0.39368764     0.94300
Al106      Al  0.14692583  0.23454821  0.38812001     1.55600
O107        O  0.23045522  0.31215871  0.41177787    -0.77400
C108        C  0.07640327  0.27389903  0.38206801     0.98500
C109        C  0.16667187  0.24304122  0.32817168     0.93300
O110        O  0.19772811  0.25708267  0.33899921    -0.82800
O111        O  0.29116119  0.44758887  0.14623778    -0.82200
C112        C  0.35264754  0.46036927  0.03712890     0.97100
O113        O  0.33859525  0.47960273  0.05613880    -0.71300
O114        O  0.29623665  0.49855929  0.09964912    -0.74900
Al115      Al  0.34321397  0.47437344  0.09895754     1.49000
C116        C  0.26191202  0.49129132  0.09211519     0.92400
O117        O  0.26150275  0.39855554  0.06902971    -0.81100
O118        O  0.33913066  0.36450618  0.10216843    -0.74700
Al119      Al  0.27900632  0.42380848  0.10668197     1.90100
O120        O  0.31423088  0.39066631  0.04678360    -0.73800
O121        O  0.39548866  0.40922543  0.10579570    -0.73600
O122        O  0.36827096  0.43285858  0.04600809    -0.79300
O123        O  0.39671635  0.46290699  0.10000936    -0.77500
O124        O  0.32436923  0.43296903  0.09435424    -1.13600
O125        O  0.34755621  0.47104331  0.14193850    -0.72800
C126        C  0.32094662  0.46312370  0.15793032     0.97900
C127        C  0.27893567  0.38811144  0.04642893     0.94300
Al128      Al  0.35215656  0.40202628  0.07697098     1.55600
O129        O  0.25281568  0.46124353  0.08740321    -0.77400
C130        C  0.41409734  0.43601523  0.10721382     0.98500
C131        C  0.31503823  0.36059308  0.12160023     0.93300
O132        O  0.29462269  0.38483180  0.12817372    -0.82800
O133        O  0.20751971  0.19951585  0.09106521    -0.82200
C134        C  0.14094082  0.20902468  0.19912143     0.97100
O135        O  0.15629764  0.22890264  0.18155415    -0.71300
O136        O  0.19990258  0.24935681  0.13896125    -0.74900
Al137      Al  0.15338289  0.22454291  0.13828237     1.49000
C138        C  0.23414900  0.24249530  0.14688742     0.92400
O139        O  0.23575812  0.14947194  0.16719832    -0.81100
O140        O  0.15850484  0.11553411  0.13066605    -0.74700
Al141      Al  0.21888479  0.17517716  0.13010737     1.90100
O142        O  0.18213989  0.13932363  0.18742012    -0.73800
O143        O  0.10176954  0.15908889  0.12832560    -0.73600
O144        O  0.12744440  0.18099661  0.18905392    -0.79300
O145        O  0.10025878  0.21251961  0.13638781    -0.77500
O146        O  0.17278260  0.18333901  0.14178344    -1.13600
O147        O  0.15031857  0.22182466  0.09497765    -0.72800
C148        C  0.17735277  0.21409421  0.07912830     0.97900
C149        C  0.21755789  0.13763836  0.18861024     0.94300
Al150      Al  0.14476999  0.15153630  0.15724428     1.55600
O151        O  0.24370292  0.21256978  0.15101529    -0.77400
C152        C  0.08288092  0.18555364  0.12919859     0.98500
C153        C  0.18337344  0.11224791  0.11177155     0.93300
O154        O  0.20483191  0.13625480  0.10715753    -0.82800
O155        O  0.28987094  0.07066975  0.38377323    -0.82200
C156        C  0.34709103  0.99874320  0.28830636     0.97100
O157        O  0.36197899  0.02641459  0.29814573    -0.71300
O158        O  0.30625835  0.06699181  0.29935538    -0.74900
Al159      Al  0.34434853  0.05667973  0.32951209     1.49000
C160        C  0.27146222  0.07137550  0.30076318     0.92400
O161        O  0.24616870  0.99758705  0.33833200    -0.81100
O162        O  0.34162665  0.98627487  0.39216544    -0.74700
Al163      Al  0.27267910  0.03377958  0.35975690     1.90100
O164        O  0.29122054  0.46046465  0.35001515    -0.73800
O165        O  0.38979663  0.99649976  0.35073711    -0.73600
O166        O  0.33292588  0.47952199  0.30599876    -0.79300
O167        O  0.38745626  0.05016267  0.35855921    -0.77500
O168        O  0.31739713  0.02510569  0.34623708    -1.13600
O169        O  0.32943507  0.09382661  0.35511452    -0.72800
C170        C  0.30708156  0.09611082  0.37623540     0.97900
C171        C  0.25681907  0.46707462  0.34224863     0.94300
Al172      Al  0.33649945  0.98389044  0.34929356     1.55600
O173        O  0.25482865  0.06155372  0.32393127    -0.77400
C174        C  0.40657547  0.02358247  0.35883321     0.98500
C175        C  0.31546828  0.99363256  0.40879184     0.93300
O176        O  0.28493591  0.00821738  0.39783561    -0.82800
C177        C  0.22427386  0.08740488  0.22062595    -0.06200
C178        C  0.23583248  0.12053843  0.21610861    -0.00300
C179        C  0.25552981  0.13844616  0.24093075    -0.08800
C180        C  0.26360170  0.12225688  0.26962594    -0.06200
C181        C  0.25213498  0.08905348  0.27407849    -0.00300
C182        C  0.23264321  0.07115476  0.24918672    -0.08700
C183        C  0.22178569  0.03480863  0.25283111     0.61600
H184        H  0.20811759  0.07446738  0.20153234     0.12300
H185        H  0.28006284  0.13505114  0.28864561     0.12300
C186        C  0.26760038  0.17443583  0.23691758     0.61900
F187        F  0.20167705  0.02211455  0.22621815    -0.23300
F188        F  0.19932715  0.03193679  0.27714337    -0.20600
F189        F  0.25422746  0.01570698  0.25913946    -0.20300
F190        F  0.23602879  0.19408954  0.22876527    -0.20400
F191        F  0.29181557  0.17601638  0.21369413    -0.20700
F192        F  0.28640345  0.18752523  0.26392617    -0.23400
C193        C  0.28189311  0.32727497  0.15907896    -0.06200
C194        C  0.30616901  0.32708717  0.13499029    -0.00300
C195        C  0.31362628  0.29571172  0.12088364    -0.08800
C196        C  0.29197192  0.26743328  0.12792251    -0.06200
C197        C  0.26325929  0.26957306  0.14813678    -0.00300
C198        C  0.25999330  0.29924005  0.16557945    -0.08700
C199        C  0.23149614  0.30217326  0.18943082     0.62400
H200        H  0.27733160  0.35059938  0.17105515     0.12300
H201        H  0.29500423  0.24406876  0.11556223     0.12300
C202        C  0.34272378  0.29190503  0.09753771     0.61900
F203        F  0.23891767  0.32965423  0.20876843    -0.23300
F204        F  0.23275259  0.27393983  0.20778262    -0.20600
F205        F  0.19548835  0.30565305  0.17424879    -0.20300
F206        F  0.37747981  0.30426333  0.11014766    -0.20400
F207        F  0.33093819  0.30904765  0.07082245    -0.20700
F208        F  0.34777508  0.25877448  0.08933131    -0.23400
C209        C  0.23632331  0.04492100  0.07172312    -0.06200
C210        C  0.23086713  0.01765127  0.09090384    -0.00300
C211        C  0.20144066  0.01925503  0.11105443    -0.08800
C212        C  0.18273137  0.05007293  0.11470224    -0.06200
C213        C  0.19179772  0.07874479  0.09828308    -0.00300
C214        C  0.21599246  0.07496596  0.07403292    -0.08700
C215        C  0.22203374  0.10264009  0.05126953     0.61600
H216        H  0.25793948  0.04309337  0.05562571     0.12300
H217        H  0.16322196  0.05260271  0.13239334     0.12300
C218        C  0.19110814  0.48958270  0.12684865     0.61900
F219        F  0.23303976  0.08962025  0.02374742    -0.23300
F220        F  0.25018960  0.12417738  0.06381318    -0.20600
F221        F  0.18857372  0.12017972  0.04417164    -0.20300
F222        F  0.22102914  0.48028461  0.14800055    -0.20400
F223        F  0.18179789  0.46335063  0.10647457    -0.20700
F224        F  0.15988475  0.49592680  0.14302774    -0.23400
C225        C  0.33419982  0.01522338  0.23371440    -0.06200
C226        C  0.34415869  0.48873940  0.25407656    -0.00300
C227        C  0.34465080  0.45478809  0.24401800    -0.08800
C228        C  0.33471887  0.44733767  0.21246271    -0.06200
C229        C  0.32565725  0.47257049  0.19088954    -0.00300
C230        C  0.32656001  0.50651063  0.20054887    -0.08700
C231        C  0.31165411  0.03605672  0.17991803     0.61600
H232        H  0.33187794  0.04058471  0.24230513     0.12300
H233        H  0.33474004  0.42167508  0.20420949     0.12300
C234        C  0.35642703  0.42639328  0.26601073     0.61900
F235        F  0.30897684  0.06636399  0.19526226    -0.23300
F236        F  0.27612871  0.02841954  0.16526625    -0.20600
F237        F  0.33701956  0.03983319  0.15781029    -0.20300
F238        F  0.32698281  0.41869874  0.28355784    -0.20400
F239        F  0.38829390  0.43539729  0.28546392    -0.20700
F240        F  0.36541295  0.39780856  0.24998266    -0.23400
C241        C  0.33204777  0.44854831  0.48210932    -0.06200
C242        C  0.34709423  0.46890802  0.00389569    -0.00300
C243        C  0.34867522  0.50233935  0.99334113    -0.08800
C244        C  0.33562445  0.01139695  0.46187186    -0.06200
C245        C  0.32230054  0.98559344  0.44171795    -0.00300
C246        C  0.31840760  0.45641318  0.45142238    -0.08700
C247        C  0.29983404  0.42945803  0.43009113     0.61600
H248        H  0.32740092  0.42382491  0.49094475     0.12300
H249        H  0.33642372  0.03650960  0.45282073     0.12300
C250        C  0.36465077  0.53066608  0.01434596     0.61900
F251        F  0.29756020  0.39925076  0.44513509    -0.23300
F252        F  0.33205427  0.92049760  0.40666150    -0.20600
F253        F  0.26338299  0.43909481  0.41939612    -0.20300
F254        F  0.40973470  0.01224861  0.02889856    -0.20400
F255        F  0.33843631  0.54001030  0.03452926    -0.20700
F256        F  0.39116582  0.05379202  0.99655199    -0.23400
C257        C  0.21464324  0.36826516  0.47393615    -0.06200
C258        C  0.23532971  0.34217827  0.46112986    -0.00300
C259        C  0.27101536  0.33289987  0.47596315    -0.08800
C260        C  0.27677511  0.34143044  0.00914382    -0.06200
C261        C  0.25994405  0.37121771  0.01870463    -0.00300
C262        C  0.22774715  0.38469990  0.50179291    -0.08700
C263        C  0.20519783  0.41344576  0.51390431     0.61600
H264        H  0.18749219  0.37543204  0.46198199     0.12300
H265        H  0.30013928  0.33085897  0.02401634     0.12300
C266        C  0.28108661  0.29151150  0.97316546     0.61900
F267        F  0.17321040  0.42078047  0.49399357    -0.23300
F268        F  0.24185380  0.44349561  0.01252686    -0.20600
F269        F  0.19338141  0.40526530  0.54243957    -0.20300
F270        F  0.30440181  0.31541587  0.43368847    -0.20400
F271        F  0.27493653  0.27615571  0.45994102    -0.20700
F272        F  0.30849497  0.28088989  0.99606528    -0.23400
C273        C  0.17878805  0.25563170  0.50020312    -0.06200
C274        C  0.14668671  0.24177949  0.48312851    -0.00300
C275        C  0.12541533  0.21667898  0.49631673    -0.08800
C276        C  0.15058780  0.19986897  0.02635089    -0.06200
C277        C  0.17229156  0.22211810  0.04590871    -0.00300
C278        C  0.18245935  0.25363498  0.03466249    -0.08700
C279        C  0.20591318  0.27827905  0.05539778     0.61600
H280        H  0.19516686  0.27422786  0.48920630     0.12300
H281        H  0.14206778  0.17642261  0.03595084     0.12300
C282        C  0.09102588  0.20093088  0.47803865     0.61900
F283        F  0.21219774  0.30770494  0.04011265    -0.23300
F284        F  0.24080081  0.26419056  0.06497938    -0.20600
F285        F  0.18726199  0.28615938  0.08114461    -0.20300
F286        F  0.10228331  0.18389860  0.45253097    -0.20400
F287        F  0.06537300  0.22561747  0.46802230    -0.20700
F288        F  0.10325945  0.15647961  0.99235675    -0.23400
C289        C  0.14388947  0.25750796  0.27478520    -0.06200
C290        C  0.16037141  0.23360815  0.29533865    -0.00300
C291        C  0.16527873  0.20035691  0.28509257    -0.08800
C292        C  0.15640652  0.19283942  0.25346012    -0.06200
C293        C  0.14210962  0.21731343  0.23240096    -0.00300
C294        C  0.13381958  0.24971529  0.24334283    -0.08700
C295        C  0.11245879  0.27520608  0.22249135     0.61600
H296        H  0.13837767  0.28222555  0.28374918     0.12300
H297        H  0.16208752  0.16807753  0.24469713     0.12300
C298        C  0.18032747  0.17315673  0.30730940     0.61900
F299        F  0.10080786  0.30227753  0.23933372    -0.23300
F300        F  0.08040260  0.26051175  0.20712091    -0.20600
F301        F  0.13533803  0.28707744  0.20097906    -0.20300
F302        F  0.15735699  0.17034330  0.33126868    -0.20400
F303        F  0.21691144  0.18098440  0.31948104    -0.20700
F304        F  0.18110058  0.14228046  0.29265822    -0.23400
C305        C  0.17733327  0.40863565  0.36205222    -0.06200
C306        C  0.18777448  0.37884261  0.34752696    -0.00300
C307        C  0.21497623  0.38109661  0.32516121    -0.08800
C308        C  0.23592778  0.41085825  0.32339244    -0.06200
C309        C  0.22820158  0.43949695  0.34041145    -0.00300
C310        C  0.19634581  0.43927035  0.35810008    -0.08700
C311        C  0.18330097  0.47079614  0.37367866     0.61600
H312        H  0.15563878  0.40743834  0.37803955     0.12300
H313        H  0.25947261  0.41162513  0.30911265     0.12300
C314        C  0.22426032  0.35224493  0.30407603     0.61900
F315        F  0.15181221  0.46502034  0.38960390    -0.23300
F316        F  0.17348212  0.49465774  0.35137109    -0.20600
F317        F  0.21201310  0.48316396  0.39462379    -0.20300
F318        F  0.19172131  0.33433427  0.29419063    -0.20400
F319        F  0.25084265  0.33144840  0.31966387    -0.20700
F320        F  0.23929082  0.36379553  0.27774119    -0.23400
C321        C  0.30695654  0.15847141  0.37435954    -0.06200
C322        C  0.29621178  0.12930823  0.38927096    -0.00300
C323        C  0.26911670  0.13241625  0.41168117    -0.08800
C324        C  0.24930118  0.16271578  0.41380963    -0.06200
C325        C  0.25691980  0.19049547  0.39606929    -0.00300
C326        C  0.28802094  0.18924720  0.37762719    -0.08700
C327        C  0.29977673  0.21955226  0.35996985     0.61600
H328        H  0.32840432  0.15648626  0.35819320     0.12300
H329        H  0.22603761  0.16439730  0.42835543     0.12300
C330        C  0.25861708  0.10388638  0.43224376     0.61900
F331        F  0.33074236  0.21284211  0.34359676    -0.23300
F332        F  0.30973701  0.24537710  0.38063368    -0.20600
F333        F  0.27010666  0.22966114  0.33896477    -0.20300
F334        F  0.29092050  0.08670469  0.44360012    -0.20400
F335        F  0.23340964  0.08240266  0.41559257    -0.20700
F336        F  0.24130613  0.11558041  0.45761584    -0.23400
C337        C  0.97715619  0.16149405  0.12478139    -0.06200
C338        C  0.95960154  0.19233401  0.11730945    -0.00300
C339        C  0.98313705  0.22042613  0.11230879    -0.08800
C340        C  0.02290876  0.21637586  0.11575859    -0.06200
C341        C  0.04041672  0.18565046  0.12343769    -0.00300
C342        C  0.01700407  0.15739696  0.12772340    -0.08700
C343        C  0.03333089  0.12303211  0.13583784     0.61600
H344        H  0.95918339  0.14021615  0.12824453     0.12300
H345        H  0.04099367  0.23760453  0.11236051     0.12300
C346        C  0.96724039  0.25466366  0.10283890     0.61900
F347        F  0.00519311  0.09968959  0.13951300    -0.23300
F348        F  0.05653199  0.12475126  0.16347761    -0.20600
F349        F  0.05390274  0.11158263  0.11226916    -0.20300
F350        F  0.94677656  0.26754734  0.12588386    -0.20400
F351        F  0.94414779  0.25202207  0.07516630    -0.20700
F352        F  0.99564593  0.27745907  0.09829383    -0.23400
C353        C  0.46365402  0.05298384  0.38448360    -0.06200
C354        C  0.44870876  0.02488972  0.36755441    -0.00300
C355        C  0.47445374  0.00022627  0.35825352    -0.08800
C356        C  0.51364965  0.00453780  0.36664493    -0.06200
C357        C  0.52855541  0.03267096  0.38318597    -0.00300
C358        C  0.50307036  0.05739143  0.39255434    -0.08700
C359        C  0.51689693  0.08767875  0.41191715     0.61600
H360        H  0.44401133  0.07170126  0.39151339     0.12300
H361        H  0.53332452  0.98564144  0.36016637     0.12300
C362        C  0.46140746  0.96987246  0.33870051     0.61900
F363        F  0.48700012  0.10659181  0.42101561    -0.23300
F364        F  0.53848865  0.10804397  0.39483025    -0.20600
F365        F  0.53818004  0.57343003  0.44112027    -0.20300
F366        F  0.44085368  0.98025815  0.31163764    -0.20400
F367        F  0.43924149  0.94944904  0.35526164    -0.20700
F368        F  0.49165428  0.95091497  0.33032526    -0.23400
C369        C  0.71674168  0.08777530  0.50559854    -0.06200
C370        C  0.73029605  0.09362424  0.47643725    -0.00300
C371        C  0.75751596  0.11907579  0.47391663    -0.08800
C372        C  0.78292181  0.10673964  0.01165082    -0.06200
C373        C  0.76151256  0.13075249  0.02657704    -0.00300
C374        C  0.72423212  0.13834461  0.01396678    -0.08700
C375        C  0.70123445  0.16577149  0.02775993     0.61600
H376        H  0.69523271  0.06875418  0.50709045     0.12300
H377        H  0.81184924  0.10177538  0.02120922     0.12300
C378        C  0.77279958  0.12722961  0.44323866     0.61900
F379        F  0.68632948  0.07351309  0.55978361    -0.23300
F380        F  0.72156428  0.19541689  0.02912945    -0.20600
F381        F  0.69353423  0.15705955  0.05737172    -0.20300
F382        F  0.74315003  0.13553549  0.42148392    -0.20400
F383        F  0.79184318  0.09980042  0.43279189    -0.20700
F384        F  0.82640504  0.05811276  0.98717721    -0.23400
C385        C  0.51751126  0.41152855  0.13479478    -0.06200
C386        C  0.53737276  0.44067974  0.12812737    -0.00300
C387        C  0.51639897  0.46813961  0.11472065    -0.08800
C388        C  0.47648521  0.46541142  0.10895450    -0.06200
C389        C  0.45647082  0.43627026  0.11556761    -0.00300
C390        C  0.47758326  0.40861633  0.12881059    -0.08700
C391        C  0.45869517  0.37604908  0.13690583     0.61600
H392        H  0.53375576  0.39075680  0.14502876     0.12300
H393        H  0.46051845  0.48631389  0.09870594     0.12300
C394        C  0.53577770  0.49997018  0.10551644     0.61900
F395        F  0.48436013  0.35397188  0.15192639    -0.23300
F396        F  0.44284718  0.36038316  0.11005710    -0.20600
F397        F  0.43076389  0.38243508  0.15648557    -0.20300
F398        F  0.56404581  0.49217652  0.08666279    -0.20400
F399        F  0.55136607  0.51676882  0.13181566    -0.20700
F400        F  0.51056974  0.52147622  0.08921009    -0.23400
C401        C  0.68409151  0.30369343  0.12518275    -0.06200
C402        C  0.68868692  0.33167945  0.10652346    -0.00300
C403        C  0.71184412  0.32842225  0.08160784    -0.08800
C404        C  0.73567114  0.30027406  0.08030847    -0.06200
C405        C  0.73434671  0.27386755  0.10130694    -0.00300
C406        C  0.70641413  0.27459990  0.12286984    -0.08700
C407        C  0.70261858  0.24625836  0.14544197     0.61600
H408        H  0.66605229  0.30610807  0.14393311     0.12300
H409        H  0.75593505  0.29916504  0.06303438     0.12300
C410        C  0.71322787  0.35488216  0.05686503     0.61900
F411        F  0.67261442  0.25127575  0.16329536    -0.23300
F412        F  0.73559359  0.24388508  0.16528220    -0.20600
F413        F  0.69615836  0.21646788  0.12934940    -0.20300
F414        F  0.74648310  0.37314184  0.06237892    -0.20400
F415        F  0.68238902  0.37633894  0.05621420    -0.20700
F416        F  0.71240010  0.33975434  0.02790228    -0.23400
C417        C  0.78949912  0.02532470  0.12908405    -0.06200
C418        C  0.75837109  0.02811100  0.14698606    -0.00300
C419        C  0.75126285  0.05936292  0.16084935    -0.08800
C420        C  0.77441684  0.08680700  0.15536886    -0.06200
C421        C  0.80296593  0.08540360  0.13465159    -0.00300
C422        C  0.81119427  0.05362990  0.12171664    -0.08700
C423        C  0.84116082  0.04952954  0.09913094     0.61600
H424        H  0.79046492  0.50189646  0.11543434     0.12300
H425        H  0.76774434  0.11059879  0.16558577     0.12300
C426        C  0.71750654  0.06493246  0.17954316     0.61900
F427        F  0.83907410  0.51857891  0.08540928    -0.23300
F428        F  0.87534061  0.06294825  0.11188543    -0.20600
F429        F  0.82948095  0.06556979  0.07165056    -0.20300
F430        F  0.71359469  0.03852928  0.19924010    -0.20400
F431        F  0.68467430  0.06795469  0.15954698    -0.20700
F432        F  0.72172639  0.09369018  0.19761563    -0.23400
C433        C  0.67963777  0.49595139  0.50330285    -0.06200
C434        C  0.64331844  0.48823504  0.48903283    -0.00300
C435        C  0.61811252  0.46859026  0.50441962    -0.08800
C436        C  0.62970049  0.46215515  0.03464917    -0.06200
C437        C  0.66628697  0.46892757  0.04938357    -0.00300
C438        C  0.69347867  0.48528986  0.03279354    -0.08700
C439        C  0.73247788  0.49515421  0.04806304     0.61600
H440        H  0.69866154  0.51041003  0.49043322     0.12300
H441        H  0.60919278  0.44982453  0.04775129     0.12300
C442        C  0.57942167  0.45888485  0.48859691     0.61900
F443        F  0.75338504  0.51265056  0.02806911    -0.23300
F444        F  0.75295266  0.46693892  0.05742728    -0.20600
F445        F  0.72825905  0.51541740  0.07352918    -0.20300
F446        F  0.55836977  0.48739468  0.48129604    -0.20400
F447        F  0.55337935  0.96042882  0.51333394    -0.20700
F448        F  0.58388294  0.44119933  0.46155895    -0.23400
C449        C  0.61620688  0.48066827  0.25259273    -0.06200
C450        C  0.64931170  0.47554418  0.23799352    -0.00300
C451        C  0.68509068  0.98427291  0.25560202    -0.08800
C452        C  0.68632909  0.99572513  0.28633661    -0.06200
C453        C  0.65337589  0.00000048  0.30143779    -0.00300
C454        C  0.61743647  0.49235676  0.28348636    -0.08700
C455        C  0.58007417  0.49747699  0.29745819     0.61600
H456        H  0.58912975  0.47552531  0.23936971     0.12300
H457        H  0.71391660  0.99978759  0.29921196     0.12300
C458        C  0.72346457  0.97675043  0.24408090     0.61900
F459        F  0.57573112  0.47248831  0.31865738    -0.23300
F460        F  0.57961049  0.52848522  0.31185856    -0.20600
F461        F  0.54912773  0.49605169  0.27516890    -0.20300
F462        F  0.74573261  0.00526598  0.24629916    -0.20400
F463        F  0.72094626  0.96535293  0.21389785    -0.20700
F464        F  0.74173293  0.95258591  0.26275009    -0.23400
C465        C  0.01556120  0.30627567  0.37534918    -0.06200
C466        C  0.03350498  0.27478413  0.37650307    -0.00300
C467        C  0.00999196  0.24573062  0.37332908    -0.08800
C468        C  0.97001463  0.24957769  0.36972237    -0.06200
C469        C  0.95200415  0.28104343  0.36867306    -0.00300
C470        C  0.97554127  0.31013248  0.37131224    -0.08700
C471        C  0.95923336  0.34534479  0.36945096     0.61600
H472        H  0.03338443  0.32831774  0.37779113     0.12300
H473        H  0.95227122  0.22747846  0.36763738     0.12300
C474        C  0.02632665  0.21051952  0.37336407     0.61900
F475        F  0.98738856  0.36958669  0.37245822    -0.23300
F476        F  0.93614609  0.35054945  0.39309492    -0.20600
F477        F  0.93852914  0.34977947  0.34093349    -0.20300
F478        F  0.04506005  0.20363892  0.40218856    -0.20400
F479        F  0.05122507  0.20756177  0.35069854    -0.20700
F480        F  0.99834858  0.18645825  0.36721422    -0.23400
C481        C  0.76781585  0.33239810  0.25030710    -0.06200
C482        C  0.75102169  0.33942304  0.27798841    -0.00300
C483        C  0.72386750  0.36521373  0.27836764    -0.08800
C484        C  0.71546209  0.38382748  0.25116809    -0.06200
C485        C  0.73348577  0.37774613  0.22390533    -0.00300
C486        C  0.75991990  0.35142892  0.22331760    -0.08700
C487        C  0.77947192  0.34335899  0.19443595     0.61600
H488        H  0.78868101  0.31250795  0.25046245     0.12300
H489        H  0.69406292  0.40327133  0.25077715     0.12300
C490        C  0.70436953  0.37340883  0.30727528     0.61900
F491        F  0.80327369  0.31593812  0.19867625    -0.23300
F492        F  0.80116764  0.37044383  0.18718188    -0.20600
F493        F  0.75265383  0.33636829  0.16974894    -0.20300
F494        F  0.73111290  0.38274207  0.33129503    -0.20400
F495        F  0.68478998  0.34561669  0.31596204    -0.20700
F496        F  0.67858415  0.39935927  0.30233864    -0.23400
C497        C  0.80547171  0.21530385  0.21969897    -0.06200
C498        C  0.83106533  0.22893234  0.20050788    -0.00300
C499        C  0.86038227  0.25097564  0.21363093    -0.08800
C500        C  0.86313820  0.25738161  0.24561988    -0.06200
C501        C  0.83782396  0.24348729  0.26482093    -0.00300
C502        C  0.80797801  0.22230461  0.25163369    -0.08700
C503        C  0.77852868  0.20711437  0.27065297     0.61600
H504        H  0.78340642  0.19869563  0.20945285     0.12300
H505        H  0.88553984  0.27351247  0.25608173     0.12300
C506        C  0.88875471  0.26843440  0.19471699     0.61900
F507        F  0.75033082  0.19004308  0.25236378    -0.23300
F508        F  0.76100007  0.23205487  0.28641781    -0.20600
F509        F  0.79621165  0.18457036  0.29139322    -0.20300
F510        F  0.86956273  0.28627457  0.17079299    -0.20400
F511        F  0.91253704  0.24508717  0.18291119    -0.20700
F512        F  0.91165580  0.29095217  0.21242542    -0.23400
C513        C  0.85178109  0.22459650  0.45982038    -0.06200
C514        C  0.82920211  0.25308860  0.45304432    -0.00300
C515        C  0.81831066  0.27334231  0.47750005    -0.08800
C516        C  0.83223342  0.26534591  0.00822900    -0.06200
C517        C  0.85523003  0.23690706  0.01505698    -0.00300
C518        C  0.86316913  0.21471611  0.49019739    -0.08700
C519        C  0.90074521  0.19210087  0.99597590     0.61600
H520        H  0.86007740  0.20940723  0.44077410     0.12300
H521        H  0.82126308  0.27925335  0.02698012     0.12300
C522        C  0.79680529  0.30590129  0.47163114     0.61900
F523        F  0.90228670  0.17335691  0.46766524    -0.23300
F524        F  0.88401395  0.16319835  0.00549841    -0.20600
F525        F  0.92949995  0.20227937  0.01811363    -0.20300
F526        F  0.76087599  0.29950178  0.45709313    -0.20400
F527        F  0.81659936  0.32619912  0.45308961    -0.20700
F528        F  0.79251777  0.32321063  0.49894121    -0.23400
C529        C  0.77537961  0.39555053  0.41461111    -0.06200
C530        C  0.79767067  0.39353163  0.38923945    -0.00300
C531        C  0.80033827  0.42256342  0.37067138    -0.08800
C532        C  0.77731536  0.45062068  0.37605172    -0.06200
C533        C  0.75163336  0.45046724  0.39884336    -0.00300
C534        C  0.75195495  0.42325558  0.41945789    -0.08700
C535        C  0.72654728  0.42295756  0.44580436     0.61600
H536        H  0.77371248  0.37388705  0.42921510     0.12300
H537        H  0.77704528  0.47204390  0.36088149     0.12300
C538        C  0.82532954  0.42361032  0.34408479     0.61900
F539        F  0.68896112  0.41953180  0.43389279    -0.23300
F540        F  0.73540130  0.39684054  0.46605144    -0.20600
F541        F  0.73092822  0.45252771  0.46258214    -0.20300
F542        F  0.81211387  0.40112363  0.32106291    -0.20400
F543        F  0.86236828  0.41575127  0.35498770    -0.20700
F544        F  0.82562247  0.45500117  0.33085025    -0.23400
C545        C  0.67848583  0.16980801  0.38726906    -0.06200
C546        C  0.67825557  0.14299566  0.36599218    -0.00300
C547        C  0.69729447  0.14740287  0.33889247    -0.08800
C548        C  0.72290168  0.17430988  0.33761959    -0.06200
C549        C  0.72660909  0.19927434  0.36068925    -0.00300
C550        C  0.70172086  0.19834406  0.38462543    -0.08700
C551        C  0.70113474  0.22645166  0.40829990     0.61600
H552        H  0.66307017  0.16702332  0.40752482     0.12300
H553        H  0.73955235  0.17602866  0.31814419     0.12300
C554        C  0.69115153  0.12432953  0.31085092     0.61900
F555        F  0.67379400  0.22134083  0.42864140    -0.23300
F556        F  0.69288606  0.25632360  0.39326792    -0.20600
F557        F  0.73618614  0.22873105  0.42542898    -0.20300
F558        F  0.65894457  0.10473628  0.31168287    -0.20400
F559        F  0.72254435  0.10392578  0.30947034    -0.20700
F560        F  0.68624217  0.14316441  0.28405585    -0.23400
O561        O  0.78863004  0.33533194  0.88376529    -0.82200
C562        C  0.84432367  0.25112691  0.79953734     0.97100
O563        O  0.86080230  0.27914023  0.80639408    -0.71300
O564        O  0.80959197  0.32368566  0.80758701    -0.74900
Al565      Al  0.84842844  0.31270512  0.83662870     1.49000
C566        C  0.77405949  0.32329430  0.80584007     0.92400
O567        O  0.75105187  0.25228427  0.85313991    -0.81100
O568        O  0.84969324  0.25320196  0.90300690    -0.74700
Al569      Al  0.77604357  0.29290165  0.86760591     1.90100
O570        O  0.79546242  0.21848500  0.87037156    -0.73800
O571        O  0.89319478  0.25241044  0.85718971    -0.73600
O572        O  0.83126856  0.23308374  0.81994090    -0.79300
O573        O  0.89321622  0.30583032  0.86425384    -0.77500
O574        O  0.82105572  0.28348838  0.85532678    -1.13600
O575        O  0.83790878  0.35172744  0.86131023    -0.72800
C576        C  0.81106292  0.35810170  0.87775662     0.97900
C577        C  0.76078039  0.22400343  0.86318977     0.94300
Al578      Al  0.84053972  0.24284367  0.86196198     1.55600
O579        O  0.75644535  0.31193239  0.82784345    -0.77400
C580        C  0.91155779  0.27900261  0.86348395     0.98500
C581        C  0.82493152  0.26290263  0.92026775     0.93300
O582        O  0.79290439  0.27540508  0.90918298    -0.82800
O583        O  0.70322095  0.44848469  0.59554341    -0.82200
C584        C  0.64791478  0.46800844  0.70531504     0.97100
O585        O  0.65931610  0.48713196  0.68502857    -0.71300
O586        O  0.69753279  0.50396519  0.63791791    -0.74900
Al587      Al  0.65241883  0.47901713  0.64229584     1.49000
C588        C  0.73193042  0.49873557  0.64628953     0.92400
O589        O  0.73660042  0.40796191  0.67544452    -0.81100
O590        O  0.65354601  0.37094722  0.63807783    -0.74700
Al591      Al  0.71785470  0.42923565  0.63641599     1.90100
O592        O  0.68278649  0.39414809  0.69345744    -0.73800
O593        O  0.59906236  0.41580642  0.63887793    -0.73600
O594        O  0.63256130  0.43963970  0.69805826    -0.79300
O595        O  0.59946528  0.46920709  0.64452865    -0.77500
O596        O  0.67196504  0.43812014  0.64808336    -1.13600
O597        O  0.64608578  0.47131754  0.59956988    -0.72800
C598        C  0.67211145  0.46151257  0.58338207     0.97900
C599        C  0.71829659  0.39437584  0.69593529     0.94300
Al600      Al  0.64409881  0.40782386  0.66549255     1.55600
O601        O  0.74264024  0.46943477  0.65248159    -0.77400
C602        C  0.58108128  0.44284332  0.63815155     0.98500
C603        C  0.68057687  0.36549167  0.62156055     0.93300
O604        O  0.70500689  0.38763680  0.61857192    -0.82800
O605        O  0.68081489  0.08391777  0.86431721    -0.82200
C606        C  0.63737586  0.99984844  0.95647383     0.97100
O607        O  0.61966722  0.02682086  0.94971677    -0.71300
O608        O  0.67694963  0.06702782  0.95189085    -0.74900
Al609      Al  0.63606054  0.06096869  0.92222500     1.49000
C610        C  0.70975273  0.07664877  0.94731555     0.92400
O611        O  0.73453574  0.00947468  0.90088078    -0.81100
O612        O  0.63651725  0.99774758  0.85082212    -0.74700
Al613      Al  0.70397839  0.04594354  0.88409447     1.90100
O614        O  0.69139385  0.46882572  0.88780323    -0.73800
O615        O  0.59136259  0.00254269  0.89480603    -0.73600
O616        O  0.65126352  0.48195758  0.93466247    -0.79300
O617        O  0.59125150  0.05709766  0.89408644    -0.77500
O618        O  0.66188346  0.03305872  0.89981506    -1.13600
O619        O  0.64957586  0.10195365  0.90205231    -0.72800
C620        C  0.66803554  0.10786146  0.87904465     0.97900
C621        C  0.72545569  0.47622171  0.89660153     0.94300
Al622      Al  0.64444002  0.99170604  0.89347238     1.55600
O623        O  0.72292642  0.07193255  0.92118911    -0.77400
C624        C  0.57350335  0.02976657  0.88984676     0.98500
C625        C  0.66078950  0.00756696  0.83353433     0.93300
O626        O  0.69092009  0.02274125  0.84477013    -0.82800
O627        O  0.79674212  0.20428365  0.65800013    -0.82200
C628        C  0.85358388  0.22228880  0.54753404     0.97100
O629        O  0.83892099  0.23998599  0.56744607    -0.71300
O630        O  0.79750256  0.25546051  0.61270231    -0.74900
Al631      Al  0.84531441  0.23253543  0.60990405     1.49000
C632        C  0.76324857  0.24705822  0.60576399     0.92400
O633        O  0.76457445  0.15396328  0.58268730    -0.81100
O634        O  0.83828007  0.12187638  0.60563926    -0.74700
Al635      Al  0.78378873  0.18038967  0.61926201     1.90100
O636        O  0.81244360  0.15508022  0.55397061    -0.73800
O637        O  0.89763599  0.16632788  0.61167106    -0.73600
O638        O  0.86938855  0.19471589  0.55535112    -0.79300
O639        O  0.89844202  0.22067484  0.60894712    -0.77500
O640        O  0.82688071  0.19139622  0.60433954    -1.13600
O641        O  0.85224439  0.22710514  0.65228318    -0.72800
C642        C  0.82743045  0.21839135  0.66944034     0.97900
C643        C  0.77845773  0.14807124  0.55711875     0.94300
Al644      Al  0.85262569  0.16187961  0.58370703     1.55600
O645        O  0.75503613  0.21677431  0.60088897    -0.77400
C646        C  0.91631232  0.19340142  0.61300118     0.98500
C647        C  0.81846038  0.11783337  0.62816289     0.93300
O648        O  0.80501771  0.14315316  0.64040121    -0.82800
O649        O  0.19485523  0.32087589  0.85444663    -0.82200
C650        C  0.14318517  0.24779785  0.95047861     0.97100
O651        O  0.12762690  0.27545147  0.94176131    -0.71300
O652        O  0.17995710  0.31860393  0.93693310    -0.74900
Al653      Al  0.14073780  0.30545766  0.90874212     1.49000
C654        C  0.21487465  0.32181239  0.93539827     0.92400
O655        O  0.23884146  0.24674332  0.89688043    -0.81100
O656        O  0.14183342  0.23512368  0.84479410    -0.74700
Al657      Al  0.21186052  0.28310023  0.87681344     1.90100
O658        O  0.19587413  0.20871650  0.88572471    -0.73800
O659        O  0.09567956  0.24350141  0.88942677    -0.73600
O660        O  0.15624085  0.22813363  0.93121179    -0.79300
O661        O  0.09613308  0.29683911  0.88189845    -0.77500
O662        O  0.16758659  0.27416712  0.89112781    -1.13600
O663        O  0.15160653  0.34199179  0.88147832    -0.72800
C664        C  0.17454213  0.34511610  0.86091001     0.97900
C665        C  0.23016383  0.21656547  0.89261033     0.94300
Al666      Al  0.14895446  0.23252798  0.88809335     1.55600
O667        O  0.23097776  0.31020274  0.91258890    -0.77400
C668        C  0.07769157  0.27001701  0.88244995     0.98500
C669        C  0.16760978  0.24276983  0.82777531     0.93300
O670        O  0.19809353  0.25784797  0.83847705    -0.82800
O671        O  0.29410724  0.45222825  0.64445827    -0.82200
C672        C  0.35633045  0.46438879  0.53539138     0.97100
O673        O  0.34226072  0.48391196  0.55420876    -0.71300
O674        O  0.29923278  0.50240138  0.59764109    -0.74900
Al675      Al  0.34644492  0.47842251  0.59727857     1.49000
C676        C  0.26498525  0.49469564  0.59004993     0.92400
O677        O  0.26491392  0.40103781  0.56833063    -0.81100
O678        O  0.33905108  0.36784402  0.59825925    -0.74700
Al679      Al  0.28240846  0.42767388  0.60540392     1.90100
O680        O  0.31641810  0.39697794  0.54390197    -0.73800
O681        O  0.39711924  0.41201472  0.60414066    -0.73600
O682        O  0.37209322  0.43710025  0.54460890    -0.79300
O683        O  0.39969614  0.46593862  0.59869263    -0.77500
O684        O  0.32729316  0.43710261  0.59257286    -1.13600
O685        O  0.35061248  0.47530264  0.64050596    -0.72800
C686        C  0.32388600  0.46746601  0.65641816     0.97900
C687        C  0.28161129  0.39218199  0.54475173     0.94300
Al688      Al  0.35423287  0.40614521  0.57461136     1.55600
O689        O  0.25620270  0.46453678  0.58533259    -0.77400
C690        C  0.41628967  0.43857786  0.60574640     0.98500
C691        C  0.31641320  0.36433903  0.61893960     0.93300
O692        O  0.29930634  0.38958294  0.62792654    -0.82800
O693        O  0.20614070  0.19824898  0.58875975    -0.82200
C694        C  0.14425867  0.20910323  0.69825231     0.97100
O695        O  0.15888967  0.22917419  0.68028218    -0.71300
O696        O  0.19941233  0.25020566  0.63529380    -0.74900
Al697      Al  0.15384287  0.22442510  0.63690073     1.49000
C698        C  0.23399913  0.24451147  0.64274903     0.92400
O699        O  0.23822827  0.15255134  0.66674855    -0.81100
O700        O  0.15753400  0.11651729  0.62737316    -0.74700
Al701      Al  0.22004679  0.17600029  0.62866619     1.90100
O702        O  0.18443865  0.13741485  0.68434976    -0.73800
O703        O  0.10165181  0.15989625  0.62820844    -0.73600
O704        O  0.13120946  0.18067459  0.68865014    -0.79300
O705        O  0.10058360  0.21299532  0.63705411    -0.77500
O706        O  0.17379493  0.18346387  0.64034888    -1.13600
O707        O  0.14889448  0.22040969  0.59369671    -0.72800
C708        C  0.17522947  0.21219155  0.57722131     0.97900
C709        C  0.22000626  0.13809057  0.68681575     0.94300
Al710      Al  0.14601052  0.15147636  0.65562886     1.55600
O711        O  0.24447911  0.21493477  0.64749386    -0.77400
C712        C  0.08285187  0.18628272  0.62982283     0.98500
C713        C  0.18426802  0.11251977  0.61037027     0.93300
O714        O  0.20793679  0.13545315  0.60790703    -0.82800
O715        O  0.28780756  0.07314005  0.87936969    -0.82200
C716        C  0.34822927  0.99790809  0.78790581     0.97100
O717        O  0.36285868  0.02580039  0.79748010    -0.71300
O718        O  0.30943927  0.06906991  0.79993628    -0.74900
Al719      Al  0.34732774  0.05614477  0.82956864     1.49000
C720        C  0.27397865  0.07061812  0.79893512     0.92400
O721        O  0.24797310  0.99600084  0.83825652    -0.81100
O722        O  0.34309680  0.98699241  0.89218357    -0.74700
Al723      Al  0.27366013  0.03367442  0.85785350     1.90100
O724        O  0.28902354  0.45768853  0.84959135    -0.73800
O725        O  0.39158942  0.99455933  0.84971186    -0.73600
O726        O  0.33093544  0.47808173  0.80594608    -0.79300
O727        O  0.39047807  0.04792652  0.85806788    -0.77500
O728        O  0.31920274  0.02492271  0.84558835    -1.13600
O729        O  0.33517144  0.09277553  0.85640593    -0.72800
C730        C  0.31002306  0.09664534  0.87500261     0.97900
C731        C  0.25456328  0.46509666  0.84290764     0.94300
Al732      Al  0.33810118  0.98347299  0.84915461     1.55600
O733        O  0.25598850  0.05840790  0.82033064    -0.77400
C734        C  0.40902098  0.02113827  0.85795507     0.98500
C735        C  0.31722125  0.99567282  0.90877152     0.93300
O736        O  0.28677969  0.01047262  0.89749055    -0.82800
C737        C  0.22681756  0.08741509  0.71849242    -0.06200
C738        C  0.23842179  0.12064434  0.71422305    -0.00300
C739        C  0.25869914  0.13804173  0.73910492    -0.08800
C740        C  0.26705785  0.12137510  0.76751170    -0.06200
C741        C  0.25538811  0.08819391  0.77176138    -0.00300
C742        C  0.23521823  0.07075903  0.74688560    -0.08700
C743        C  0.22316081  0.03469220  0.75039368     0.61600
H744        H  0.21027500  0.07480722  0.69940248     0.12300
H745        H  0.28375069  0.13387691  0.78658315     0.12300
C746        C  0.27108913  0.17400778  0.73561819     0.61900
F747        F  0.20405425  0.02210821  0.72328918    -0.23300
F748        F  0.19921097  0.03265127  0.77377202    -0.20600
F749        F  0.25479509  0.01491544  0.75795614    -0.20300
F750        F  0.23977625  0.19389260  0.72722347    -0.20400
F751        F  0.29592523  0.17568139  0.71285955    -0.20700
F752        F  0.28937886  0.18674508  0.76299117    -0.23400
C753        C  0.27971259  0.33066957  0.65413638    -0.06200
C754        C  0.30524495  0.33062287  0.63091404    -0.00300
C755        C  0.31315526  0.29929692  0.61690396    -0.08800
C756        C  0.29147107  0.27079671  0.62354826    -0.06200
C757        C  0.26217515  0.27255291  0.64331969    -0.00300
C758        C  0.25785015  0.30242120  0.66030003    -0.08700
C759        C  0.22949862  0.30471561  0.68438911     0.62400
H760        H  0.27471523  0.35388839  0.66610608     0.12300
H761        H  0.29533236  0.24740684  0.61147407     0.12300
C762        C  0.34290336  0.29578649  0.59405727     0.61900
F763        F  0.23401634  0.33385332  0.70188389    -0.23300
F764        F  0.23439266  0.27796887  0.70447118    -0.20600
F765        F  0.19293179  0.30424592  0.66975852    -0.20300
F766        F  0.37692020  0.30969335  0.60662493    -0.20400
F767        F  0.33063314  0.31166627  0.56665282    -0.20700
F768        F  0.34974815  0.26260853  0.58711062    -0.23400
C769        C  0.23803553  0.04635844  0.57078123    -0.06200
C770        C  0.23454118  0.01960651  0.59102003    -0.00300
C771        C  0.20622631  0.02102401  0.61220136    -0.08800
C772        C  0.18545743  0.05091439  0.61469598    -0.06200
C773        C  0.19220784  0.07910539  0.59685637    -0.00300
C774        C  0.21606060  0.07554946  0.57243556    -0.08700
C775        C  0.22069839  0.10277915  0.54896479     0.61600
H776        H  0.25894616  0.04479394  0.55404914     0.12300
H777        H  0.16678732  0.05357621  0.63299189     0.12300
C778        C  0.19467186  0.49079464  0.62489651     0.61900
F779        F  0.22268328  0.08871876  0.51980539    -0.23300
F780        F  0.25394187  0.12027006  0.55738450    -0.20600
F781        F  0.19022172  0.12468454  0.54686670    -0.20300
F782        F  0.22501360  0.48266449  0.64610238    -0.20400
F783        F  0.18651414  0.46422389  0.60467279    -0.20700
F784        F  0.16324164  0.49603305  0.64110375    -0.23400
C785        C  0.33842331  0.01483964  0.73324982    -0.06200
C786        C  0.34301358  0.48865052  0.75410922    -0.00300
C787        C  0.34038601  0.45506158  0.74280997    -0.08800
C788        C  0.33288577  0.44940209  0.71066879    -0.06200
C789        C  0.32838669  0.47581359  0.68973707    -0.00300
C790        C  0.33135150  0.50924778  0.70071087    -0.08700
C791        C  0.32311104  0.03730490  0.67901608     0.61600
H792        H  0.33781014  0.04031701  0.74186935     0.12300
H793        H  0.33077564  0.42411592  0.70146188     0.12300
C794        C  0.34586654  0.42504189  0.76410137     0.61900
F795        F  0.32280418  0.06775701  0.69446834    -0.23300
F796        F  0.28818714  0.03326354  0.66203256    -0.20600
F797        F  0.35121182  0.03857101  0.65894868    -0.20300
F798        F  0.31449703  0.42128259  0.78051024    -0.20400
F799        F  0.37819340  0.42925825  0.78455724    -0.20700
F800        F  0.35014351  0.39569597  0.74758391    -0.23400
C801        C  0.33418666  0.44339564  0.98299354    -0.06200
C802        C  0.35072074  0.47242474  0.50208015    -0.00300
C803        C  0.35729777  0.50485428  0.49093284    -0.08800
C804        C  0.34353238  0.01053804  0.96183730    -0.06200
C805        C  0.32363628  0.98738973  0.94184652    -0.00300
C806        C  0.32149380  0.45029344  0.95190350    -0.08700
C807        C  0.30706158  0.42205187  0.93012377     0.61600
H808        H  0.33275191  0.41809816  0.99151378     0.12300
H809        H  0.35029052  0.03472269  0.95273393     0.12300
C810        C  0.38057980  0.53062927  0.51043686     0.61900
F811        F  0.30858301  0.39144616  0.94491730    -0.23300
F812        F  0.32100331  0.92188285  0.90669685    -0.20600
F813        F  0.26966630  0.42811640  0.91900584    -0.20300
F814        F  0.39649748  0.02521790  0.53130847    -0.20400
F815        F  0.35700202  0.54870519  0.52803358    -0.20700
F816        F  0.37099730  0.06192255  0.49654941    -0.23400
C817        C  0.21913246  0.37052676  0.97043901    -0.06200
C818        C  0.23528663  0.34012127  0.96149445    -0.00300
C819        C  0.26443182  0.32511800  0.98116055    -0.08800
C820        C  0.28392585  0.34913418  0.50396696    -0.06200
C821        C  0.26261704  0.37440908  0.51736839    -0.00300
C822        C  0.23100270  0.38643704  0.99887720    -0.08700
C823        C  0.21363552  0.41950863  0.00745253     0.61600
H824        H  0.19622254  0.38130063  0.95513217     0.12300
H825        H  0.31133629  0.34233594  0.51559884     0.12300
C826        C  0.29502771  0.30588727  0.46265480     0.61900
F827        F  0.18710796  0.43078535  0.98417592    -0.23300
F828        F  0.22770136  0.44182469  0.51707527    -0.20600
F829        F  0.19558449  0.41581050  0.03418959    -0.20300
F830        F  0.29783793  0.29385256  0.94567343    -0.20400
F831        F  0.25257933  0.26763777  0.96982584    -0.20700
F832        F  0.32856795  0.30034805  0.48130078    -0.23400
C833        C  0.17068604  0.26174960  0.00358642    -0.06200
C834        C  0.14934756  0.23925813  0.98376789    -0.00300
C835        C  0.13901946  0.20777895  0.99525873    -0.08800
C836        C  0.13663237  0.20665001  0.52693587    -0.06200
C837        C  0.16896166  0.22030761  0.54400219    -0.00300
C838        C  0.19038706  0.24528359  0.53064018    -0.08700
C839        C  0.22456048  0.26154129  0.54879232     0.61600
H840        H  0.17900412  0.28539028  0.99425402     0.12300
H841        H  0.12015040  0.18811505  0.53792095     0.12300
C842        C  0.11417520  0.18340205  0.97536541     0.61900
F843        F  0.24110366  0.28555739  0.53159001    -0.23300
F844        F  0.25172341  0.23754914  0.55718847    -0.20600
F845        F  0.21339674  0.27685124  0.57519721    -0.20300
F846        F  0.13353044  0.17106773  0.95145356    -0.20400
F847        F  0.08161754  0.19963432  0.96323687    -0.20700
F848        F  0.07270059  0.17854886  0.49576316    -0.23400
C849        C  0.14794892  0.25815763  0.77383520    -0.06200
C850        C  0.16159932  0.23357603  0.79480453    -0.00300
C851        C  0.16559437  0.20025344  0.78451531    -0.08800
C852        C  0.15742461  0.19299561  0.75275274    -0.06200
C853        C  0.14486882  0.21787215  0.73141932    -0.00300
C854        C  0.13855495  0.25081757  0.74224883    -0.08700
C855        C  0.12126172  0.27889431  0.72208453     0.61600
H856        H  0.14312851  0.28310701  0.78250523     0.12300
H857        H  0.16216992  0.16797064  0.74415508     0.12300
C858        C  0.17896036  0.17271354  0.80693964     0.61900
F859        F  0.09287912  0.29438868  0.73684948    -0.23300
F860        F  0.10495381  0.26800696  0.69341791    -0.20600
F861        F  0.14912606  0.30221185  0.71790339    -0.20300
F862        F  0.15298579  0.16855870  0.82853105    -0.20400
F863        F  0.21394085  0.18107691  0.82217111    -0.20700
F864        F  0.18272751  0.14240514  0.79184883    -0.23400
C865        C  0.17451008  0.40767894  0.86362863    -0.06200
C866        C  0.18287363  0.37846026  0.84730222    -0.00300
C867        C  0.20782158  0.38133217  0.82349069    -0.08800
C868        C  0.23032117  0.41023688  0.82234712    -0.06200
C869        C  0.22509029  0.43817967  0.84113167    -0.00300
C870        C  0.19431212  0.43799522  0.86006943    -0.08700
C871        C  0.18354203  0.46900839  0.87761758     0.61600
H872        H  0.15438963  0.40606590  0.88090428     0.12300
H873        H  0.25239479  0.41095793  0.80666051     0.12300
C874        C  0.21237063  0.35399394  0.79969194     0.61900
F875        F  0.15234310  0.46348587  0.89396085    -0.23300
F876        F  0.17431015  0.49451084  0.85683374    -0.20600
F877        F  0.21355224  0.47890671  0.89855917    -0.20300
F878        F  0.17972687  0.33484237  0.79491076    -0.20400
F879        F  0.24296376  0.33389241  0.80958617    -0.20700
F880        F  0.21872153  0.36779034  0.77139529    -0.23400
C881        C  0.31026371  0.15897829  0.87222995    -0.06200
C882        C  0.30190389  0.13013222  0.88868095    -0.00300
C883        C  0.27678653  0.13334432  0.91230539    -0.08800
C884        C  0.25429384  0.16226805  0.91337742    -0.06200
C885        C  0.25965368  0.18984605  0.89454925    -0.00300
C886        C  0.29027425  0.18928552  0.87551067    -0.08700
C887        C  0.30042487  0.21978673  0.85738398     0.61600
H888        H  0.33030787  0.15695437  0.85489828     0.12300
H889        H  0.23212833  0.16328509  0.92904427     0.12300
C890        C  0.27207225  0.10643673  0.93608139     0.61900
F891        F  0.33174530  0.21406269  0.84116624    -0.23300
F892        F  0.30910760  0.24622785  0.87765530    -0.20600
F893        F  0.27023165  0.22850541  0.83626117    -0.20300
F894        F  0.30292088  0.08498860  0.93895901    -0.20400
F895        F  0.23921425  0.08842034  0.92760324    -0.20700
F896        F  0.26938799  0.12098028  0.96495029    -0.23400
C897        C  0.97692363  0.16242478  0.62641757    -0.06200
C898        C  0.95912743  0.19279780  0.61747870    -0.00300
C899        C  0.98264208  0.22056844  0.61138846    -0.08800
C900        C  0.02255621  0.21675030  0.61521547    -0.06200
C901        C  0.04023769  0.18648076  0.62435248    -0.00300
C902        C  0.01686242  0.15858769  0.62994902    -0.08700
C903        C  0.03342981  0.12500973  0.64051010     0.61600
H904        H  0.95907128  0.14133685  0.63077161     0.12300
H905        H  0.04060977  0.23774914  0.61095822     0.12300
C906        C  0.96647393  0.25418855  0.60040937     0.61900
F907        F  0.00545818  0.10218231  0.64606778    -0.23300
F908        F  0.05681376  0.12911790  0.66785251    -0.20600
F909        F  0.05391969  0.11145896  0.61778967    -0.20300
F910        F  0.94616657  0.26826128  0.62299880    -0.20400
F911        F  0.94310213  0.25001947  0.57303688    -0.20700
F912        F  0.99470977  0.27666355  0.59460939    -0.23400
C913        C  0.46985124  0.05267199  0.86269680    -0.06200
C914        C  0.45127405  0.02189109  0.86569486    -0.00300
C915        C  0.47344331  0.99356156  0.87547628    -0.08800
C916        C  0.51291851  0.99767648  0.88297107    -0.06200
C917        C  0.53147616  0.02862634  0.88052207    -0.00300
C918        C  0.50946539  0.05663422  0.86948842    -0.08700
C919        C  0.52706374  0.09062498  0.86440536     0.61600
H920        H  0.45288041  0.07397120  0.85462530     0.12300
H921        H  0.52972792  0.97627895  0.89098997     0.12300
C922        C  0.45607915  0.95904995  0.87834841     0.61900
F923        F  0.50076786  0.11291346  0.85051407    -0.23300
F924        F  0.55591548  0.08732743  0.84514521    -0.20600
F925        F  0.54125629  0.58848051  0.92432571    -0.20300
F926        F  0.44189946  0.94740845  0.84928403    -0.20400
F927        F  0.42714802  0.96055390  0.89768357    -0.20700
F928        F  0.48252105  0.93599922  0.89071002    -0.23400
C929        C  0.70908286  0.12058815  0.98738521    -0.06200
C930        C  0.73024934  0.09612690  0.97286076    -0.00300
C931        C  0.76784811  0.08913032  0.98496779    -0.08800
C932        C  0.77006084  0.13765983  0.50065545    -0.06200
C933        C  0.75710989  0.13140533  0.52994707    -0.00300
C934        C  0.72939367  0.10630424  0.53242303    -0.08700
C935        C  0.71323806  0.09881568  0.56292692     0.61600
H936        H  0.68024272  0.12568127  0.97762297     0.12300
H937        H  0.79085309  0.15726951  0.49890361     0.12300
C938        C  0.79127114  0.06247599  0.97049530     0.61900
F939        F  0.66691374  0.17115360  0.01015295    -0.23300
F940        F  0.69580056  0.12708919  0.57348858    -0.20600
F941        F  0.74208185  0.08890569  0.58481343    -0.20300
F942        F  0.79733230  0.07148693  0.94057892    -0.20400
F943        F  0.77213965  0.03226478  0.96962897    -0.20700
F944        F  0.79793255  0.15391031  0.44592951    -0.23400
C945        C  0.52126583  0.41263487  0.62037912    -0.06200
C946        C  0.53869532  0.44302097  0.63034447    -0.00300
C947        C  0.51518914  0.47166705  0.63309301    -0.08800
C948        C  0.47561239  0.46859172  0.62520998    -0.06200
C949        C  0.45830734  0.43825079  0.61503158    -0.00300
C950        C  0.48170886  0.40952021  0.61270910    -0.08700
C951        C  0.46579871  0.37565480  0.60160523     0.61600
H952        H  0.53913146  0.39089455  0.61847609     0.12300
H953        H  0.45758343  0.49025281  0.62705463     0.12300
C954        C  0.53101796  0.50545064  0.64451835     0.61900
F955        F  0.49412068  0.35200524  0.59963569    -0.23300
F956        F  0.44654870  0.37858624  0.57232256    -0.20600
F957        F  0.44148640  0.36377088  0.62219683    -0.20300
F958        F  0.55571928  0.51743394  0.62427902    -0.20400
F959        F  0.54983353  0.50231806  0.67396272    -0.20700
F960        F  0.50266184  0.52910453  0.64631548    -0.23400
C961        C  0.68314332  0.30397323  0.62783807    -0.06200
C962        C  0.68819375  0.33161497  0.60883105    -0.00300
C963        C  0.71155641  0.32773781  0.58410054    -0.08800
C964        C  0.73483698  0.29924518  0.58316066    -0.06200
C965        C  0.73302023  0.27316212  0.60439564    -0.00300
C966        C  0.70507300  0.27456107  0.62592260    -0.08700
C967        C  0.70072914  0.24647912  0.64866056     0.61600
H968        H  0.66498985  0.30687468  0.64646154     0.12300
H969        H  0.75520733  0.29765334  0.56599223     0.12300
C970        C  0.71408658  0.35386478  0.55919336     0.61900
F971        F  0.67161980  0.25261703  0.66719774    -0.23300
F972        F  0.73410794  0.24295290  0.66783294    -0.20600
F973        F  0.69250008  0.21689897  0.63263394    -0.20300
F974        F  0.74850226  0.37048969  0.56425968    -0.20400
F975        F  0.68470947  0.37683231  0.55867379    -0.20700
F976        F  0.71187468  0.33844032  0.53030701    -0.23400
C977        C  0.79035922  0.02459334  0.63054645    -0.06200
C978        C  0.76086961  0.02661993  0.65020986    -0.00300
C979        C  0.75615812  0.05707631  0.66647666    -0.08800
C980        C  0.77947522  0.08442025  0.66119047    -0.06200
C981        C  0.80558384  0.08405838  0.63852547    -0.00300
C982        C  0.81211445  0.05297600  0.62360855    -0.08700
C983        C  0.83999931  0.04981762  0.59920047     0.61600
H984        H  0.79587909  0.50178792  0.61840388     0.12300
H985        H  0.77473907  0.10744977  0.67363644     0.12300
C986        C  0.72658296  0.06336623  0.68906280     0.61900
F987        F  0.85069474  0.51767583  0.59497487    -0.23300
F988        F  0.87509832  0.06236265  0.61082316    -0.20600
F989        F  0.82654673  0.06726149  0.57289742    -0.20300
F990        F  0.70553184  0.03558991  0.69458197    -0.20400
F991        F  0.70192171  0.08810689  0.67739547    -0.20700
F992        F  0.74457761  0.07415812  0.71725159    -0.23400
C993        C  0.68280134  0.49439395  0.00188054    -0.06200
C994        C  0.64593686  0.48856389  0.98775415    -0.00300
C995        C  0.61897052  0.47196615  0.00394077    -0.08800
C996        C  0.62962336  0.45842779  0.53490305    -0.06200
C997        C  0.66557868  0.46715382  0.54976550    -0.00300
C998        C  0.69134613  0.48581390  0.53368777    -0.08700
C999        C  0.73003082  0.49654378  0.54900184     0.61600
H1000       H  0.70290994  0.50701843  0.98859088     0.12300
H1001       H  0.61024457  0.44430713  0.54772613     0.12300
C1002       C  0.57921110  0.46504526  0.98873105     0.61900
F1003       F  0.74977235  0.51573836  0.52947544    -0.23300
F1004       F  0.75184031  0.46868859  0.55713367    -0.20600
F1005       F  0.72540592  0.51544018  0.57526315    -0.20300
F1006       F  0.56128125  0.49493761  0.98080544    -0.20400
F1007       F  0.55188190  0.96157870  0.01316164    -0.20700
F1008       F  0.58126960  0.44590524  0.96215155    -0.23400
C1009       C  0.61976630  0.48811472  0.75161490    -0.06200
C1010       C  0.65263690  0.47938262  0.73785337    -0.00300
C1011       C  0.68611156  0.98179850  0.75441678    -0.08800
C1012       C  0.68788399  0.99339319  0.78506999    -0.06200
C1013       C  0.65514978  0.99866880  0.80014472    -0.00300
C1014       C  0.62158007  0.50011527  0.78238811    -0.08700
C1015       C  0.58503081  0.51119302  0.79535119     0.61600
H1016       H  0.59252079  0.48558686  0.73789793     0.12300
H1017       H  0.71561214  0.99735747  0.79775789     0.12300
C1018       C  0.72430449  0.97580558  0.74194382     0.61900
F1019       F  0.57439797  0.48808613  0.81646348    -0.23300
F1020       F  0.59028354  0.54211340  0.80973879    -0.20600
F1021       F  0.55529987  0.51412556  0.77214272    -0.20300
F1022       F  0.74407227  0.00562350  0.74194340    -0.20400
F1023       F  0.72128985  0.96266504  0.71238513    -0.20700
F1024       F  0.74547832  0.95381181  0.76114971    -0.23400
C1025       C  0.01764990  0.30239388  0.87309517    -0.06200
C1026       C  0.03503936  0.27077019  0.87667157    -0.00300
C1027       C  0.01126169  0.24193518  0.87568170    -0.08800
C1028       C  0.97144623  0.24625387  0.87201893    -0.06200
C1029       C  0.95414292  0.27792289  0.86874507    -0.00300
C1030       C  0.97788734  0.30666254  0.86898996    -0.08700
C1031       C  0.96204425  0.34186319  0.86455904     0.61600
H1032       H  0.03566774  0.32429617  0.87374020     0.12300
H1033       H  0.95328347  0.22444839  0.87171155     0.12300
C1034       C  0.02704945  0.20657258  0.87822142     0.61900
F1035       F  0.99051902  0.36565189  0.86450428    -0.23300
F1036       F  0.94037494  0.34995229  0.88852080    -0.20600
F1037       F  0.94005152  0.34384841  0.83634704    -0.20300
F1038       F  0.04651710  0.20213207  0.90713993    -0.20400
F1039       F  0.05117202  0.20095475  0.85537604    -0.20700
F1040       F  0.99863582  0.18258448  0.87463438    -0.23400
C1041       C  0.77374753  0.33383199  0.74988291    -0.06200
C1042       C  0.75524930  0.33817996  0.77720258    -0.00300
C1043       C  0.72593348  0.36201253  0.77770615    -0.08800
C1044       C  0.71706129  0.38147206  0.75114397    -0.06200
C1045       C  0.73612337  0.37775862  0.72408061    -0.00300
C1046       C  0.76475758  0.35327722  0.72323925    -0.08700
C1047       C  0.78503567  0.34715939  0.69432552     0.61600
H1048       H  0.79626215  0.31541198  0.74991075     0.12300
H1049       H  0.69440392  0.39974511  0.75110459     0.12300
C1050       C  0.70453693  0.36731430  0.80613758     0.61900
F1051       F  0.81154176  0.32166119  0.69846760    -0.23300
F1052       F  0.80395257  0.37588071  0.68705500    -0.20600
F1053       F  0.75888221  0.33837795  0.66967219    -0.20300
F1054       F  0.72947136  0.37742224  0.83113294    -0.20400
F1055       F  0.68712297  0.33776505  0.81325308    -0.20700
F1056       F  0.67654842  0.39146869  0.80128638    -0.23400
C1057       C  0.80409115  0.21800787  0.72117180    -0.06200
C1058       C  0.83390797  0.22556217  0.70315680    -0.00300
C1059       C  0.86823998  0.24005317  0.71774825    -0.08800
C1060       C  0.87056041  0.24665545  0.74966950    -0.06200
C1061       C  0.84041563  0.23977670  0.76718241    -0.00300
C1062       C  0.80644152  0.22517762  0.75298211    -0.08700
C1063       C  0.77222536  0.21812549  0.77077503     0.61600
H1064       H  0.77838304  0.20668026  0.71008113     0.12300
H1065       H  0.89601545  0.25788346  0.76139919     0.12300
C1066       C  0.90248157  0.24919367  0.70054755     0.61900
F1067       F  0.74076890  0.20793770  0.75132369    -0.23300
F1068       F  0.76213654  0.24672165  0.78616245    -0.20600
F1069       F  0.78098481  0.19292889  0.79196700    -0.20300
F1070       F  0.89244900  0.27379632  0.67898312    -0.20400
F1071       F  0.91561323  0.22118974  0.68594395    -0.20700
F1072       F  0.93254654  0.26154753  0.72035186    -0.23400
C1073       C  0.85902514  0.22881998  0.96039399    -0.06200
C1074       C  0.83418414  0.25591557  0.95343864    -0.00300
C1075       C  0.82192838  0.27556403  0.97769550    -0.08800
C1076       C  0.82870369  0.26304814  0.50806656    -0.06200
C1077       C  0.84986686  0.23356766  0.51487094    -0.00300
C1078       C  0.87113264  0.21970530  0.99073577    -0.08700
C1079       C  0.88879571  0.18416738  0.49505125     0.61600
H1080       H  0.86871813  0.21404996  0.94161138     0.12300
H1081       H  0.81933630  0.27784629  0.52694078     0.12300
C1082       C  0.79946187  0.30755443  0.97165425     0.61900
F1083       F  0.91748435  0.18449798  0.96911289    -0.23300
F1084       F  0.86875955  0.15797075  0.50626932    -0.20600
F1085       F  0.92015472  0.19180603  0.51566543    -0.20300
F1086       F  0.76377276  0.30040327  0.95703323    -0.20400
F1087       F  0.81885204  0.32816155  0.95310426    -0.20700
F1088       F  0.79464336  0.32481758  0.99888506    -0.23400
C1089       C  0.78004227  0.39555741  0.91373066    -0.06200
C1090       C  0.80125743  0.39281677  0.88782124    -0.00300
C1091       C  0.80297779  0.42114939  0.86828217    -0.08800
C1092       C  0.77979481  0.44924620  0.87330711    -0.06200
C1093       C  0.75526347  0.44983709  0.89701598    -0.00300
C1094       C  0.75696109  0.42346697  0.91857310    -0.08700
C1095       C  0.73335236  0.42438091  0.94602008     0.61600
H1096       H  0.77892860  0.37428190  0.92884725     0.12300
H1097       H  0.77864745  0.47005825  0.85738166     0.12300
C1098       C  0.82699521  0.42111379  0.84103069     0.61900
F1099       F  0.69518667  0.42180755  0.93562466    -0.23300
F1100       F  0.74252326  0.39845088  0.96639915    -0.20600
F1101       F  0.73975543  0.45417025  0.96215507    -0.20300
F1102       F  0.81311499  0.39772234  0.81906840    -0.20400
F1103       F  0.86433278  0.41358316  0.85133162    -0.20700
F1104       F  0.82674832  0.45195128  0.82672111    -0.23400
C1105       C  0.70138030  0.15821278  0.90021015    -0.06200
C1106       C  0.68277341  0.14216661  0.87402953    -0.00300
C1107       C  0.68591263  0.15599441  0.84428921    -0.08800
C1108       C  0.71006159  0.18393437  0.84164446    -0.06200
C1109       C  0.73185696  0.19761948  0.86766903    -0.00300
C1110       C  0.72629954  0.18530328  0.89763092    -0.08700
C1111       C  0.74696494  0.20026961  0.92692961     0.61600
H1112       H  0.69859515  0.14761613  0.92282119     0.12300
H1113       H  0.71360825  0.19412067  0.81898644     0.12300
C1114       C  0.66413649  0.14112658  0.81551404     0.61900
F1115       F  0.73526323  0.18631369  0.95359746    -0.23300
F1116       F  0.73977175  0.23416162  0.92805360    -0.20600
F1117       F  0.78559376  0.19478489  0.92710285    -0.20300
F1118       F  0.62684746  0.13504314  0.82112224    -0.20400
F1119       F  0.68092346  0.11146908  0.80757142    -0.20700
F1120       F  0.66365744  0.16259294  0.79052902    -0.23400
O1121       O  0.78584222  0.83528643  0.38475898    -0.82200
C1122       C  0.84338180  0.75206354  0.30034300     0.97100
O1123       O  0.85852766  0.78079718  0.30654476    -0.71300
O1124       O  0.80607097  0.82443264  0.30797321    -0.74900
Al1125     Al  0.84569440  0.81436327  0.33682827     1.49000
C1126       C  0.77057370  0.82343127  0.30655209     0.92400
O1127       O  0.75039417  0.75197421  0.35344274    -0.81100
O1128       O  0.84902825  0.75529284  0.40420913    -0.74700
Al1129     Al  0.77412716  0.79291069  0.36834792     1.90100
O1130       O  0.79527388  0.71904476  0.37157280    -0.73800
O1131       O  0.89244515  0.75513717  0.35801304    -0.73600
O1132       O  0.83116094  0.73408867  0.32117038    -0.79300
O1133       O  0.89170366  0.80875951  0.36374291    -0.77500
O1134       O  0.81945977  0.78458355  0.35603474    -1.13600
O1135       O  0.83413177  0.85319615  0.36180724    -0.72800
C1136       C  0.80738092  0.85871830  0.37868681     0.97900
C1137       C  0.76051394  0.72388047  0.36368875     0.94300
Al1138     Al  0.84008201  0.74443490  0.36306828     1.55600
O1139       O  0.75364569  0.81189279  0.32882174    -0.77400
C1140       C  0.91050340  0.78211687  0.36305891     0.98500
C1141       C  0.82362181  0.76399496  0.42128415     0.93300
O1142       O  0.79120297  0.77540314  0.40988995    -0.82800
O1143       O  0.70232209  0.95008223  0.09650001    -0.82200
C1144       C  0.64468406  0.96854783  0.20556330     0.97100
O1145       O  0.65709940  0.98803779  0.18595540    -0.71300
O1146       O  0.69630033  0.00516237  0.13905290    -0.74900
Al1147     Al  0.65080189  0.98057518  0.14290670     1.49000
C1148       C  0.73073927  0.99978051  0.14709192     0.92400
O1149       O  0.73363163  0.90859521  0.17666037    -0.81100
O1150       O  0.65174431  0.87217593  0.13757178    -0.74700
Al1151     Al  0.71613130  0.93049031  0.13742706     1.90100
O1152       O  0.67906733  0.89515928  0.19378453    -0.73800
O1153       O  0.59741768  0.91763464  0.13689589    -0.73600
O1154       O  0.62856688  0.94075299  0.19722658    -0.79300
O1155       O  0.59714680  0.97086564  0.14419089    -0.77500
O1156       O  0.67000378  0.93950919  0.14843544    -1.13600
O1157       O  0.64543486  0.97345198  0.10017477    -0.72800
C1158       C  0.67147259  0.96337804  0.08406049     0.97900
C1159       C  0.71461426  0.89492335  0.19673608     0.94300
Al1160     Al  0.64133780  0.90913973  0.16482762     1.55600
O1161       O  0.74113844  0.97051868  0.15385977    -0.77400
C1162       C  0.57911429  0.94452857  0.13646861     0.98500
C1163       C  0.67920695  0.86694278  0.12144121     0.93300
O1164       O  0.70358922  0.88922269  0.11903423    -0.82800
O1165       O  0.68119371  0.58299592  0.36623415    -0.82200
C1166       C  0.63471789  0.49921996  0.45702322     0.97100
O1167       O  0.61812854  0.52694323  0.45115425    -0.71300
O1168       O  0.67606991  0.56569649  0.45358843    -0.74900
Al1169     Al  0.63505225  0.56113617  0.42397420     1.49000
C1170       C  0.70897570  0.57511217  0.44937285     0.92400
O1171       O  0.73091952  0.50709404  0.40332382    -0.81100
O1172       O  0.63304668  0.49932400  0.35099457    -0.74700
Al1173     Al  0.70253262  0.54442586  0.38599019     1.90100
O1174       O  0.68700070  0.97016158  0.39039842    -0.73800
O1175       O  0.58789456  0.50437391  0.39561352    -0.73600
O1176       O  0.64816989  0.98631266  0.43694251    -0.79300
O1177       O  0.58959480  0.55903653  0.39640143    -0.77500
O1178       O  0.65959979  0.53279182  0.40105737    -1.13600
O1179       O  0.64984912  0.60187806  0.40369101    -0.72800
C1180       C  0.66847619  0.60727109  0.38059213     0.97900
C1181       C  0.72128957  0.97698778  0.39864987     0.94300
Al1182     Al  0.64051782  0.49206466  0.39373310     1.55600
O1183       O  0.72223453  0.57024237  0.42329882    -0.77400
C1184       C  0.57090511  0.53220139  0.39221106     0.98500
C1185       C  0.65857134  0.50760969  0.33416281     0.93300
O1186       O  0.68931068  0.52139843  0.34618025    -0.82800
O1187       O  0.79567344  0.70456975  0.15864498    -0.82200
C1188       C  0.85250545  0.72382932  0.04870417     0.97100
O1189       O  0.83871227  0.74158527  0.06902589    -0.71300
O1190       O  0.79749616  0.75666692  0.11448517    -0.74900
Al1191     Al  0.84503638  0.73316117  0.11130073     1.49000
C1192       C  0.76324621  0.74880802  0.10660952     0.92400
O1193       O  0.76320876  0.65595512  0.08189106    -0.81100
O1194       O  0.83656247  0.62272474  0.10517754    -0.74700
Al1195     Al  0.78246988  0.68156363  0.11913242     1.90100
O1196       O  0.81153044  0.65679020  0.05373983    -0.73800
O1197       O  0.89658454  0.66648938  0.11211414    -0.73600
O1198       O  0.86859585  0.69625659  0.05616640    -0.79300
O1199       O  0.89807799  0.72090180  0.11016536    -0.77500
O1200       O  0.82600712  0.69228053  0.10484685    -1.13600
O1201       O  0.85180550  0.72653110  0.15349810    -0.72800
C1202       C  0.82682312  0.71775565  0.17046651     0.97900
C1203       C  0.77746031  0.64977292  0.05650724     0.94300
Al1204     Al  0.85153414  0.66293229  0.08387986     1.55600
O1205       O  0.75478208  0.71869993  0.10105603    -0.77400
C1206       C  0.91556903  0.69338842  0.11387606     0.98500
C1207       C  0.81604836  0.61833608  0.12722197     0.93300
O1208       O  0.80238502  0.64346549  0.13963834    -0.82800
O1209       O  0.19302181  0.82347007  0.35488151    -0.82200
C1210       C  0.14157290  0.74945552  0.45114615     0.97100
O1211       O  0.12657270  0.77746022  0.44292231    -0.71300
O1212       O  0.18074717  0.81929316  0.43931759    -0.74900
Al1213     Al  0.14087923  0.80809534  0.41077217     1.49000
C1214       C  0.21527722  0.82375370  0.43664664     0.92400
O1215       O  0.23835774  0.74958001  0.39741251    -0.81100
O1216       O  0.14096049  0.73891903  0.34514365    -0.74700
Al1217     Al  0.21110252  0.78597457  0.37739393     1.90100
O1218       O  0.19488665  0.71181000  0.38631100    -0.73800
O1219       O  0.09479529  0.74751731  0.38925632    -0.73600
O1220       O  0.15455519  0.73020800  0.43153360    -0.79300
O1221       O  0.09566063  0.80122448  0.38371780    -0.77500
O1222       O  0.16698794  0.77696456  0.39214657    -1.13600
O1223       O  0.15291412  0.84527032  0.38454909    -0.72800
C1224       C  0.17429769  0.84816945  0.36281649     0.97900
C1225       C  0.22933102  0.71941618  0.39315084     0.94300
Al1226     Al  0.14785211  0.73566772  0.38842784     1.55600
O1227       O  0.23051120  0.81345424  0.41290485    -0.77400
C1228       C  0.07708109  0.77432210  0.38273214     0.98500
C1229       C  0.16699264  0.74602128  0.32825958     0.93300
O1230       O  0.19771740  0.76049300  0.33915628    -0.82800
O1231       O  0.29165673  0.95021952  0.14749452    -0.82200
C1232       C  0.35143936  0.96188116  0.03699887     0.97100
O1233       O  0.33704378  0.98107259  0.05587129    -0.71300
O1234       O  0.29462179  0.99913533  0.09969639    -0.74900
Al1235     Al  0.34221831  0.97600114  0.09891040     1.49000
C1236       C  0.26033058  0.99095154  0.09298588     0.92400
O1237       O  0.26114679  0.89707408  0.07314247    -0.81100
O1238       O  0.33695809  0.86555461  0.10149904    -0.74700
Al1239     Al  0.27956713  0.92472694  0.10922827     1.90100
O1240       O  0.31127023  0.89308129  0.04681046    -0.73800
O1241       O  0.39463225  0.91045205  0.10504077    -0.73600
O1242       O  0.36672253  0.93428948  0.04586158    -0.79300
O1243       O  0.39561794  0.96433765  0.09957686    -0.77500
O1244       O  0.32366905  0.93448894  0.09496909    -1.13600
O1245       O  0.34765063  0.97347716  0.14212726    -0.72800
C1246       C  0.32153236  0.96572430  0.15864377     0.97900
C1247       C  0.27666572  0.88813188  0.04902603     0.94300
Al1248     Al  0.35046085  0.90353471  0.07668036     1.55600
O1249       O  0.25169988  0.96064729  0.08913949    -0.77400
C1250       C  0.41321240  0.93739110  0.10636619     0.98500
C1251       C  0.31564580  0.86259883  0.12318883     0.93300
O1252       O  0.29878849  0.88793233  0.13217298    -0.82800
O1253       O  0.20446300  0.70171705  0.08900176    -0.82200
C1254       C  0.14288450  0.70965708  0.19937140     0.97100
O1255       O  0.15713994  0.72956897  0.18124214    -0.71300
O1256       O  0.19846885  0.75024559  0.13744163    -0.74900
Al1257     Al  0.15225038  0.72516833  0.13799164     1.49000
C1258       C  0.23296625  0.74377231  0.14480067     0.92400
O1259       O  0.23678317  0.65024543  0.16340925    -0.81100
O1260       O  0.15935310  0.61596159  0.13016069    -0.74700
Al1261     Al  0.21774379  0.67665791  0.12737771     1.90100
O1262       O  0.18484249  0.64070310  0.18619119    -0.73800
O1263       O  0.10075654  0.65898238  0.13005524    -0.73600
O1264       O  0.12970661  0.68131821  0.18986632    -0.79300
O1265       O  0.09927787  0.71266214  0.13757361    -0.77500
O1266       O  0.17227132  0.68420178  0.14074019    -1.13600
O1267       O  0.14712561  0.72269188  0.09476697    -0.72800
C1268       C  0.17367079  0.71606579  0.07811156     0.97900
C1269       C  0.22002239  0.63851191  0.18565578     0.94300
Al1270     Al  0.14580332  0.65206760  0.15730968     1.55600
O1271       O  0.24310212  0.71388985  0.14821684    -0.77400
C1272       C  0.08185514  0.68553859  0.13113527     0.98500
C1273       C  0.18324938  0.61324419  0.11026308     0.93300
O1274       O  0.20281244  0.63808540  0.10431229    -0.82800
O1275       O  0.28624527  0.57421105  0.37788796    -0.82200
C1276       C  0.34736615  0.49853851  0.28726728     0.97100
O1277       O  0.36201080  0.52663595  0.29633503    -0.71300
O1278       O  0.30791173  0.56864651  0.29773314    -0.74900
Al1279     Al  0.34552371  0.55764036  0.32777129     1.49000
C1280       C  0.27258017  0.57059517  0.29689347     0.92400
O1281       O  0.24732902  0.49677463  0.33692247    -0.81100
O1282       O  0.34239986  0.48976358  0.39165305    -0.74700
Al1283     Al  0.27230592  0.53479022  0.35646620     1.90100
O1284       O  0.28905887  0.95959021  0.34951245    -0.73800
O1285       O  0.39075375  0.49749841  0.34959486    -0.73600
O1286       O  0.33177539  0.97956018  0.30633919    -0.79300
O1287       O  0.38859988  0.55110390  0.35671551    -0.77500
O1288       O  0.31801464  0.52642436  0.34445146    -1.13600
O1289       O  0.33191738  0.59495244  0.35367625    -0.72800
C1290       C  0.30725847  0.59832633  0.37284004     0.97900
C1291       C  0.25468261  0.96742250  0.34263916     0.94300
Al1292     Al  0.33763197  0.48539955  0.34884865     1.55600
O1293       O  0.25456809  0.55935565  0.31872102    -0.77400
C1294       C  0.40757554  0.52455316  0.35727487     0.98500
C1295       C  0.31601875  0.49770321  0.40795375     0.93300
O1296       O  0.28525981  0.51179601  0.39636904    -0.82800
C1297       C  0.22665427  0.58754352  0.21625630    -0.06200
C1298       C  0.23947042  0.62036138  0.21194270    -0.00300
C1299       C  0.26068842  0.63728194  0.23656895    -0.08800
C1300       C  0.26806077  0.62077206  0.26508225    -0.06200
C1301       C  0.25462435  0.58817774  0.26961274    -0.00300
C1302       C  0.23417836  0.57097826  0.24474363    -0.08700
C1303       C  0.22088981  0.53530120  0.24832169     0.61600
H1304       H  0.20950761  0.57537927  0.19723188     0.12300
H1305       H  0.28516303  0.63297414  0.28410985     0.12300
C1306       C  0.27483247  0.67267254  0.23273877     0.61900
F1307       F  0.20085398  0.52327892  0.22137712    -0.23300
F1308       F  0.19734622  0.53392814  0.27201936    -0.20600
F1309       F  0.25190553  0.51468227  0.25543994    -0.20300
F1310       F  0.24429023  0.69401883  0.22646141    -0.20400
F1311       F  0.29742536  0.67355319  0.20837544    -0.20700
F1312       F  0.29622590  0.68418192  0.25925169    -0.23400
C1313       C  0.27705481  0.82989164  0.15738859    -0.06200
C1314       C  0.30498468  0.82933901  0.13611213    -0.00300
C1315       C  0.31567830  0.79766778  0.12450217    -0.08800
C1316       C  0.29327240  0.76924545  0.12993091    -0.06200
C1317       C  0.26139839  0.77150530  0.14702424    -0.00300
C1318       C  0.25506737  0.80166864  0.16293784    -0.08700
C1319       C  0.22407387  0.80464171  0.18475728     0.62400
H1320       H  0.27008748  0.85341713  0.16799617     0.12300
H1321       H  0.29892018  0.74556647  0.11895075     0.12300
C1322       C  0.35007606  0.79358028  0.10639515     0.61900
F1323       F  0.22864052  0.83303667  0.20328779    -0.23300
F1324       F  0.22499342  0.77723015  0.20412972    -0.20600
F1325       F  0.18897886  0.80643834  0.16767701    -0.20300
F1326       F  0.38099623  0.80993094  0.12184996    -0.20400
F1327       F  0.34260299  0.80656261  0.07692364    -0.20700
F1328       F  0.35981487  0.76025706  0.10340187    -0.23400
C1329       C  0.23954131  0.54641586  0.07176756    -0.06200
C1330       C  0.23292376  0.51863210  0.08999094    -0.00300
C1331       C  0.20221395  0.51988360  0.10890201    -0.08800
C1332       C  0.18320477  0.55066510  0.11245642    -0.06200
C1333       C  0.19301824  0.57976006  0.09693477    -0.00300
C1334       C  0.21886236  0.57640349  0.07371462    -0.08700
C1335       C  0.22665214  0.60448468  0.05181789     0.61600
H1336       H  0.26215708  0.54494244  0.05657274     0.12300
H1337       H  0.16258345  0.55273452  0.12931447     0.12300
C1338       C  0.19131735  0.98938490  0.13005861     0.61900
F1339       F  0.23935267  0.59192441  0.02473790    -0.23300
F1340       F  0.25437438  0.62553923  0.06588996    -0.20600
F1341       F  0.19374193  0.62242206  0.04354207    -0.20300
F1342       F  0.22217001  0.98017561  0.15025572    -0.20400
F1343       F  0.18065737  0.96284767  0.11042089    -0.20700
F1344       F  0.16134396  0.99630055  0.14749935    -0.23400
C1345       C  0.33554666  0.51399048  0.23219398    -0.06200
C1346       C  0.34448878  0.98975780  0.25503235    -0.00300
C1347       C  0.34668188  0.95613164  0.24438981    -0.08800
C1348       C  0.33788708  0.94929292  0.21261344    -0.06200
C1349       C  0.32687520  0.97466314  0.19165115    -0.00300
C1350       C  0.32484237  0.00816702  0.20203833    -0.08700
C1351       C  0.31762558  0.53465991  0.17759384     0.61600
H1352       H  0.33494415  0.53969297  0.24021353     0.12300
H1353       H  0.33954976  0.92395580  0.20376950     0.12300
C1354       C  0.35846450  0.92744030  0.26608243     0.61900
F1355       F  0.31630729  0.56543937  0.19234518    -0.23300
F1356       F  0.28264583  0.52911004  0.16104397    -0.20600
F1357       F  0.34536643  0.53623838  0.15721527    -0.20300
F1358       F  0.32924926  0.91972516  0.28387367    -0.20400
F1359       F  0.39056962  0.93610159  0.28532827    -0.20700
F1360       F  0.36693895  0.89887949  0.24981487    -0.23400
C1361       C  0.33589322  0.94578562  0.48317291    -0.06200
C1362       C  0.34675195  0.97046643  0.00384678    -0.00300
C1363       C  0.35543885  0.00255654  0.99290332    -0.08800
C1364       C  0.34246276  0.51308623  0.46061023    -0.06200
C1365       C  0.32266392  0.48955261  0.44102712    -0.00300
C1366       C  0.32277694  0.95216911  0.45210343    -0.08700
C1367       C  0.30894677  0.92356478  0.43054250     0.61600
H1368       H  0.33537302  0.92050914  0.49185725     0.12300
H1369       H  0.34756457  0.53770207  0.45160138     0.12300
C1370       C  0.37828788  0.02770124  0.01358447     0.61900
F1371       F  0.30937318  0.89333736  0.44593390    -0.23300
F1372       F  0.32076406  0.42438488  0.40508620    -0.20600
F1373       F  0.27202918  0.92970826  0.41815783    -0.20300
F1374       F  0.39800235  0.52060924  0.03117778    -0.20400
F1375       F  0.35597142  0.04092341  0.03519655    -0.20700
F1376       F  0.37289741  0.55851194  0.99741191    -0.23400
C1377       C  0.21964210  0.87269854  0.47134899    -0.06200
C1378       C  0.23612988  0.84251672  0.46223289    -0.00300
C1379       C  0.26661509  0.82841475  0.48111450    -0.08800
C1380       C  0.26886032  0.83830989  0.01536217    -0.06200
C1381       C  0.25601684  0.87054663  0.02240904    -0.00300
C1382       C  0.23233085  0.88912959  0.49933984    -0.08700
C1383       C  0.21576055  0.92266735  0.50750035     0.61600
H1384       H  0.19609481  0.88302316  0.45643291     0.12300
H1385       H  0.28877776  0.82609825  0.03226274     0.12300
C1386       C  0.26986784  0.78658323  0.98107390     0.61900
F1387       F  0.18823890  0.93333480  0.48471503    -0.23300
F1388       F  0.24766098  0.94408215  0.01255006    -0.20600
F1389       F  0.19924100  0.92027705  0.53509157    -0.20300
F1390       F  0.30003974  0.79900473  0.44444378    -0.20400
F1391       F  0.25735738  0.77064895  0.46965957    -0.20700
F1392       F  0.29079043  0.77337911  0.00686460    -0.23400
C1393       C  0.17170897  0.76148866  0.50374659    -0.06200
C1394       C  0.14798968  0.74036236  0.48433191    -0.00300
C1395       C  0.13599113  0.70943997  0.49593876    -0.08800
C1396       C  0.14720696  0.70283893  0.02508784    -0.06200
C1397       C  0.16740678  0.72542111  0.04530912    -0.00300
C1398       C  0.17466723  0.75818578  0.03529799    -0.08700
C1399       C  0.19537719  0.78358645  0.05711536     0.61600
H1400       H  0.18125716  0.78467106  0.49433004     0.12300
H1401       H  0.14064948  0.67839541  0.03378414     0.12300
C1402       C  0.10846152  0.68667364  0.47660371     0.61900
F1403       F  0.19859412  0.81422495  0.04300998    -0.23300
F1404       F  0.23156512  0.77204421  0.06653860    -0.20600
F1405       F  0.17577483  0.78854405  0.08290540    -0.20300
F1406       F  0.12450847  0.67518640  0.45063870    -0.20400
F1407       F  0.07564807  0.70426673  0.46750651    -0.20700
F1408       F  0.09820073  0.66084942  0.99074014    -0.23400
C1409       C  0.14177249  0.75864103  0.27467112    -0.06200
C1410       C  0.16116558  0.73635409  0.29538604    -0.00300
C1411       C  0.17045516  0.70396161  0.28521811    -0.08800
C1412       C  0.16254541  0.69574953  0.25364544    -0.06200
C1413       C  0.14469692  0.71855556  0.23253990    -0.00300
C1414       C  0.13275512  0.75006491  0.24321200    -0.08700
C1415       C  0.10872906  0.77355160  0.22199438     0.61600
H1416       H  0.13317959  0.78259458  0.28351235     0.12300
H1417       H  0.17105477  0.67165566  0.24503125     0.12300
C1418       C  0.18821569  0.67817151  0.30771512     0.61900
F1419       F  0.09557599  0.80045074  0.23822507    -0.23300
F1420       F  0.07750338  0.75645475  0.20792835    -0.20600
F1421       F  0.12974165  0.78599334  0.19940165    -0.20300
F1422       F  0.16405082  0.67183430  0.33027125    -0.20400
F1423       F  0.22242373  0.69000836  0.32170400    -0.20700
F1424       F  0.19504223  0.64823754  0.29298314    -0.23400
C1425       C  0.17573058  0.91071818  0.36616602    -0.06200
C1426       C  0.18257797  0.88154702  0.34925617    -0.00300
C1427       C  0.20537739  0.88439000  0.32401456    -0.08800
C1428       C  0.22816313  0.91308722  0.32199511    -0.06200
C1429       C  0.22470620  0.94092551  0.34141110    -0.00300
C1430       C  0.19521670  0.94094107  0.36163241    -0.08700
C1431       C  0.18538263  0.97206363  0.37943887     0.61600
H1432       H  0.15697407  0.90919206  0.38446467     0.12300
H1433       H  0.24900939  0.91374146  0.30519366     0.12300
C1434       C  0.20641331  0.85742824  0.29926585     0.61900
F1435       F  0.15420190  0.96701651  0.39592050    -0.23300
F1436       F  0.17655365  0.99786239  0.35889245    -0.20600
F1437       F  0.21574698  0.98125554  0.40028612    -0.20300
F1438       F  0.17199629  0.84061016  0.29514545    -0.20400
F1439       F  0.23538185  0.83504781  0.30758932    -0.20700
F1440       F  0.21264879  0.87142385  0.27102641    -0.23400
C1441       C  0.30841681  0.66107205  0.37196868    -0.06200
C1442       C  0.29842545  0.63161590  0.38682050    -0.00300
C1443       C  0.27272210  0.63439321  0.41015286    -0.08800
C1444       C  0.25148107  0.66393598  0.41224886    -0.06200
C1445       C  0.25845085  0.69228504  0.39490912    -0.00300
C1446       C  0.28978041  0.69185325  0.37659846    -0.08700
C1447       C  0.30264127  0.72326229  0.36115904     0.61600
H1448       H  0.32914519  0.65944635  0.35515806     0.12300
H1449       H  0.22864663  0.66475984  0.42728457     0.12300
C1450       C  0.26565631  0.60619375  0.43211822     0.61900
F1451       F  0.33406528  0.71736641  0.34511036    -0.23300
F1452       F  0.31252766  0.74737359  0.38361377    -0.20600
F1453       F  0.27385448  0.73542860  0.34038563    -0.20300
F1454       F  0.29779548  0.58657223  0.43791113    -0.20400
F1455       F  0.23555817  0.58672096  0.41950118    -0.20700
F1456       F  0.25679658  0.61891295  0.46040104    -0.23400
C1457       C  0.97586314  0.66395484  0.13239484    -0.06200
C1458       C  0.95831846  0.69246105  0.11856707    -0.00300
C1459       C  0.98198282  0.71814105  0.10815176    -0.08800
C1460       C  0.02185056  0.71407701  0.11206838    -0.06200
C1461       C  0.03929832  0.68565992  0.12588478    -0.00300
C1462       C  0.01584661  0.66017318  0.13663373    -0.08700
C1463       C  0.03257750  0.62971468  0.15372620     0.61600
H1464       H  0.95780252  0.64456686  0.14028049     0.12300
H1465       H  0.04007615  0.73345718  0.10437191     0.12300
C1466       C  0.96590764  0.74972269  0.09250355     0.61900
F1467       F  0.00472508  0.60972444  0.16444493    -0.23300
F1468       F  0.05677385  0.63980570  0.17918389    -0.20600
F1469       F  0.05236022  0.61045354  0.13404533    -0.20300
F1470       F  0.94738530  0.76853174  0.11337904    -0.20400
F1471       F  0.94087836  0.74143111  0.06698573    -0.20700
F1472       F  0.99406812  0.76962490  0.08212354    -0.23400
C1473       C  0.46419305  0.55239798  0.38507403    -0.06200
C1474       C  0.44948856  0.52569234  0.36612070    -0.00300
C1475       C  0.47520118  0.50214878  0.35504888    -0.08800
C1476       C  0.51420152  0.50545926  0.36462254    -0.06200
C1477       C  0.52903180  0.53221246  0.38322126    -0.00300
C1478       C  0.50354803  0.55630920  0.39372708    -0.08700
C1479       C  0.51725407  0.58535364  0.41479710     0.61600
H1480       H  0.44439927  0.57036176  0.39319125     0.12300
H1481       H  0.53370721  0.48684028  0.35747730     0.12300
C1482       C  0.46232008  0.47427002  0.33228238     0.61900
F1483       F  0.48728760  0.60388663  0.42430308    -0.23300
F1484       F  0.53953850  0.60659044  0.39917089    -0.20600
F1485       F  0.53857227  0.07739840  0.43851995    -0.20300
F1486       F  0.44114368  0.48755900  0.30669216    -0.20400
F1487       F  0.44074920  0.45123861  0.34654684    -0.20700
F1488       F  0.49276338  0.45736412  0.32161708    -0.23400
C1489       C  0.70694651  0.61720780  0.49111828    -0.06200
C1490       C  0.72914856  0.59450267  0.47535762    -0.00300
C1491       C  0.76734361  0.58899532  0.48679487    -0.08800
C1492       C  0.77160755  0.63611827  0.00037363    -0.06200
C1493       C  0.75669530  0.63229270  0.02932112    -0.00300
C1494       C  0.72772975  0.60830918  0.03184357    -0.08700
C1495       C  0.71020910  0.60258453  0.06207975     0.61600
H1496       H  0.67759870  0.62113245  0.48205736     0.12300
H1497       H  0.79353689  0.65468757  0.99849243     0.12300
C1498       C  0.79207079  0.56420948  0.47123470     0.61900
F1499       F  0.66105311  0.66241182  0.51751414    -0.23300
F1500       F  0.69357867  0.63181327  0.07140888    -0.20600
F1501       F  0.73798019  0.59249863  0.08480680    -0.20300
F1502       F  0.79716288  0.57495155  0.44162193    -0.20400
F1503       F  0.77481230  0.53311065  0.46941472    -0.20700
F1504       F  0.80697785  0.64501796  0.94759178    -0.23400
C1505       C  0.51829276  0.91284423  0.12749495    -0.06200
C1506       C  0.53661991  0.94415090  0.12841647    -0.00300
C1507       C  0.51393785  0.97314144  0.12185362    -0.08800
C1508       C  0.47409558  0.96945839  0.11558572    -0.06200
C1509       C  0.45572554  0.93808851  0.11469660    -0.00300
C1510       C  0.47864033  0.90902948  0.12044569    -0.08700
C1511       C  0.46217432  0.87382386  0.11888882     0.61600
H1512       H  0.53556314  0.89084185  0.13242881     0.12300
H1513       H  0.45684289  0.99154083  0.11099254     0.12300
C1514       C  0.53115549  0.00790534  0.12058662     0.61900
F1515       F  0.48991297  0.84964838  0.12499589    -0.23300
F1516       F  0.44459256  0.86746619  0.08941370    -0.20600
F1517       F  0.43628177  0.87045070  0.14067852    -0.20300
F1518       F  0.55845588  0.00801625  0.09971833    -0.20400
F1519       F  0.54739563  0.01736800  0.14974969    -0.20700
F1520       F  0.50415907  0.03173083  0.11096922    -0.23400
C1521       C  0.68105379  0.80498235  0.12621710    -0.06200
C1522       C  0.68744634  0.83327820  0.10840289    -0.00300
C1523       C  0.71244706  0.83008624  0.08473140    -0.08800
C1524       C  0.73660663  0.80208233  0.08459173    -0.06200
C1525       C  0.73324186  0.77523538  0.10476677    -0.00300
C1526       C  0.70293828  0.77550724  0.12416199    -0.08700
C1527       C  0.69519042  0.74565388  0.14397545     0.61600
H1528       H  0.66132383  0.80710549  0.14378504     0.12300
H1529       H  0.75825060  0.80114440  0.06845811     0.12300
C1530       C  0.71486446  0.85597041  0.05959702     0.61900
F1531       F  0.66416090  0.75092875  0.16064753    -0.23300
F1532       F  0.72654259  0.73937811  0.16482175    -0.20600
F1533       F  0.68746263  0.71789294  0.12513427    -0.20300
F1534       F  0.74912055  0.87285474  0.06447666    -0.20400
F1535       F  0.68528446  0.87876399  0.05874401    -0.20700
F1536       F  0.71281431  0.84011855  0.03091214    -0.23400
C1537       C  0.78734257  0.52504810  0.12810018    -0.06200
C1538       C  0.75865031  0.52654338  0.14854147    -0.00300
C1539       C  0.75423494  0.55672479  0.16528080    -0.08800
C1540       C  0.77734168  0.58424761  0.16002252    -0.06200
C1541       C  0.80292589  0.58436226  0.13694318    -0.00300
C1542       C  0.80870407  0.55365764  0.12109966    -0.08700
C1543       C  0.83523994  0.55119093  0.09561461     0.61600
H1544       H  0.79463044  0.00122721  0.11869384     0.12300
H1545       H  0.77294712  0.60702553  0.17295546     0.12300
C1546       C  0.72518100  0.56246476  0.18840014     0.61900
F1547       F  0.84728714  0.01623974  0.09214997    -0.23300
F1548       F  0.87101881  0.56272550  0.10661339    -0.20600
F1549       F  0.82101648  0.56997533  0.07037585    -0.20300
F1550       F  0.70456972  0.53441278  0.19390636    -0.20400
F1551       F  0.70006330  0.58713410  0.17733574    -0.20700
F1552       F  0.74365775  0.57303902  0.21647994    -0.23400
C1553       C  0.68183094  0.99747322  0.50242689    -0.06200
C1554       C  0.64391109  0.99448894  0.48967984    -0.00300
C1555       C  0.61652955  0.97971451  0.50667331    -0.08800
C1556       C  0.62671048  0.96724405  0.03691079    -0.06200
C1557       C  0.66480930  0.96862680  0.05018871    -0.00300
C1558       C  0.69369509  0.97920626  0.03191369    -0.08700
C1559       C  0.73539175  0.98036522  0.04444020     0.61600
H1560       H  0.70227052  0.00843032  0.48833644     0.12300
H1561       H  0.60493899  0.95881825  0.05104918     0.12300
C1562       C  0.57568243  0.97545594  0.49279047     0.61900
F1563       F  0.75814585  0.99285338  0.02292505    -0.23300
F1564       F  0.74796550  0.94844377  0.05197871    -0.20600
F1565       F  0.73999088  0.00073801  0.07049826    -0.20300
F1566       F  0.56017521  0.00637869  0.48506836    -0.20400
F1567       F  0.55928926  0.43909610  0.50738931    -0.20700
F1568       F  0.57469917  0.95572425  0.46629725    -0.23400
C1569       C  0.61591700  0.98309103  0.25335126    -0.06200
C1570       C  0.64903295  0.97866437  0.23857697    -0.00300
C1571       C  0.68534139  0.48221177  0.25478146    -0.08800
C1572       C  0.68654295  0.49399782  0.28547607    -0.06200
C1573       C  0.65354197  0.49865007  0.30046115    -0.00300
C1574       C  0.61719811  0.99313293  0.28472240    -0.08700
C1575       C  0.57993003  0.99535823  0.29951497     0.61600
H1576       H  0.58886429  0.97812554  0.24002895     0.12300
H1577       H  0.71407970  0.49843313  0.29830487     0.12300
C1578       C  0.72377447  0.47641339  0.24271168     0.61900
F1579       F  0.57844794  0.96995712  0.32084622    -0.23300
F1580       F  0.57697744  0.02608763  0.31400375    -0.20600
F1581       F  0.54857843  0.99178914  0.27784425    -0.20300
F1582       F  0.74327638  0.50636564  0.24271741    -0.20400
F1583       F  0.72121410  0.46309195  0.21320739    -0.20700
F1584       F  0.74489859  0.45466711  0.26222805    -0.23400
C1585       C  0.01682169  0.80597956  0.36870763    -0.06200
C1586       C  0.03444144  0.77491552  0.37559208    -0.00300
C1587       C  0.01076876  0.74611986  0.37623024    -0.08800
C1588       C  0.97091145  0.75025371  0.37306154    -0.06200
C1589       C  0.95329259  0.78145342  0.36729597    -0.00300
C1590       C  0.97689101  0.80969273  0.36361463    -0.08700
C1591       C  0.96061654  0.84343489  0.35329101     0.61600
H1592       H  0.03472936  0.82773907  0.36720938     0.12300
H1593       H  0.95294973  0.72860321  0.37496740     0.12300
C1594       C  0.02672155  0.71087318  0.37968020     0.61900
F1595       F  0.98883123  0.86603692  0.34775926    -0.23300
F1596       F  0.94020251  0.85694754  0.37606272    -0.20600
F1597       F  0.93718629  0.83964475  0.32590518    -0.20300
F1598       F  0.04636040  0.70725666  0.40865880    -0.20400
F1599       F  0.05069286  0.70462259  0.35683009    -0.20700
F1600       F  0.99840646  0.68678778  0.37668726    -0.23400
C1601       C  0.76825011  0.83250304  0.25024100    -0.06200
C1602       C  0.75089734  0.83776466  0.27794538    -0.00300
C1603       C  0.72201439  0.86200197  0.27863013    -0.08800
C1604       C  0.71317447  0.88160227  0.25206298    -0.06200
C1605       C  0.73172075  0.87743164  0.22476421    -0.00300
C1606       C  0.75893002  0.85171303  0.22347677    -0.08700
C1607       C  0.77714459  0.84387307  0.19388203     0.61600
H1608       H  0.79018651  0.81356495  0.25006399     0.12300
H1609       H  0.69104886  0.90035328  0.25224087     0.12300
C1610       C  0.70102640  0.86742523  0.30726361     0.61900
F1611       F  0.80157580  0.81678211  0.19739377    -0.23300
F1612       F  0.79780274  0.87118926  0.18564225    -0.20600
F1613       F  0.74924360  0.83636604  0.17014129    -0.20300
F1614       F  0.72632241  0.87715045  0.33216555    -0.20400
F1615       F  0.68333555  0.83799793  0.31437753    -0.20700
F1616       F  0.67334408  0.89187805  0.30269881    -0.23400
C1617       C  0.80416358  0.71634798  0.22253968    -0.06200
C1618       C  0.83372435  0.72415468  0.20436960    -0.00300
C1619       C  0.86821520  0.73847135  0.21897101    -0.08800
C1620       C  0.87017983  0.74620840  0.25070052    -0.06200
C1621       C  0.84000993  0.73962900  0.26824454    -0.00300
C1622       C  0.80662300  0.72372997  0.25436023    -0.08700
C1623       C  0.77310206  0.71554646  0.27254258     0.61600
H1624       H  0.77854046  0.70480206  0.21151440     0.12300
H1625       H  0.89538997  0.75802274  0.26224623     0.12300
C1626       C  0.90309399  0.74614255  0.20200631     0.61900
F1627       F  0.74236515  0.70300297  0.25363254    -0.23300
F1628       F  0.76114691  0.74410834  0.28697197    -0.20600
F1629       F  0.78378091  0.69158738  0.29455610    -0.20300
F1630       F  0.89463323  0.77101016  0.18038846    -0.20400
F1631       F  0.91490029  0.71753925  0.18751624    -0.20700
F1632       F  0.93359587  0.75731566  0.22202268    -0.23400
C1633       C  0.85829643  0.73067583  0.46185335    -0.06200
C1634       C  0.83238631  0.75692809  0.45455116    -0.00300
C1635       C  0.81752053  0.77512413  0.47862694    -0.08800
C1636       C  0.82450266  0.76354370  0.00937524    -0.06200
C1637       C  0.84721033  0.73486637  0.01601091    -0.00300
C1638       C  0.86887438  0.72084258  0.49230142    -0.08700
C1639       C  0.88835340  0.68722999  0.99573860     0.61600
H1640       H  0.86975461  0.71692136  0.44322516     0.12300
H1641       H  0.81466330  0.77790439  0.02833766     0.12300
C1642       C  0.79303329  0.80596270  0.47246008     0.61900
F1643       F  0.91648777  0.68610628  0.47171377    -0.23300
F1644       F  0.87055966  0.65990532  0.00727595    -0.20600
F1645       F  0.91947835  0.69651065  0.01592269    -0.20300
F1646       F  0.75822281  0.79715288  0.45715628    -0.20400
F1647       F  0.81147192  0.82795684  0.45452757    -0.20700
F1648       F  0.78630235  0.82242429  0.49968176    -0.23400
C1649       C  0.77318697  0.89455215  0.41412378    -0.06200
C1650       C  0.79648415  0.89304577  0.38936716    -0.00300
C1651       C  0.79994583  0.92244222  0.37151359    -0.08800
C1652       C  0.77680762  0.95046716  0.37688376    -0.06200
C1653       C  0.75044757  0.95001427  0.39920098    -0.00300
C1654       C  0.75000913  0.92234760  0.41923186    -0.08700
C1655       C  0.72471794  0.92202781  0.44567002     0.61600
H1656       H  0.77081578  0.87256359  0.42814758     0.12300
H1657       H  0.77724246  0.97223027  0.36219252     0.12300
C1658       C  0.82618719  0.92391523  0.34581701     0.61900
F1659       F  0.68688192  0.92153200  0.43394743    -0.23300
F1660       F  0.73141328  0.89434648  0.46443020    -0.20600
F1661       F  0.73171181  0.95030488  0.46395202    -0.20300
F1662       F  0.81410872  0.90157790  0.32232141    -0.20400
F1663       F  0.86287812  0.91610358  0.35774800    -0.20700
F1664       F  0.82690415  0.95545232  0.33293797    -0.23400
C1665       C  0.69826712  0.65999317  0.40049114    -0.06200
C1666       C  0.68285973  0.64153185  0.37450817    -0.00300
C1667       C  0.68860877  0.65333453  0.34441032    -0.08800
C1668       C  0.71310448  0.68101839  0.34158464    -0.06200
C1669       C  0.73173639  0.69716294  0.36779891    -0.00300
C1670       C  0.72229082  0.68771556  0.39768648    -0.08700
C1671       C  0.73738985  0.70691592  0.42662665     0.61600
H1672       H  0.69332782  0.65121122  0.42338730     0.12300
H1673       H  0.71869106  0.68963111  0.31881776     0.12300
C1674       C  0.66791813  0.63753608  0.31552113     0.61900
F1675       F  0.72252490  0.69529373  0.45299872    -0.23300
F1676       F  0.72753112  0.74021037  0.42325504    -0.20600
F1677       F  0.77645366  0.70381579  0.43104857    -0.20300
F1678       F  0.62952977  0.63508630  0.31920650    -0.20400
F1679       F  0.68221604  0.60603535  0.31043706    -0.20700
F1680       F  0.67172393  0.65649654  0.28936413    -0.23400
O1681       O  0.78837780  0.83662228  0.88624905    -0.82200
C1682       C  0.84220694  0.75021622  0.80008028     0.97100
O1683       O  0.85829045  0.77826777  0.80691886    -0.71300
O1684       O  0.80502378  0.82103591  0.80564336    -0.74900
Al1685     Al  0.84398638  0.81256589  0.83544153     1.49000
C1686       C  0.76981848  0.82423716  0.80575379     0.92400
O1687       O  0.74527501  0.75595452  0.85322228    -0.81100
O1688       O  0.84303775  0.75315255  0.90432188    -0.74700
Al1689     Al  0.77216705  0.79532883  0.86859404     1.90100
O1690       O  0.78878804  0.71997577  0.86852868    -0.73800
O1691       O  0.88892405  0.75363067  0.85992347    -0.73600
O1692       O  0.82816206  0.73317520  0.82055476    -0.79300
O1693       O  0.88866468  0.80755454  0.86359504    -0.77500
O1694       O  0.81668804  0.78429938  0.85558501    -1.13600
O1695       O  0.83233665  0.85279928  0.85773328    -0.72800
C1696       C  0.80857195  0.85953246  0.87686234     0.97900
C1697       C  0.75429656  0.72669092  0.86116978     0.94300
Al1698     Al  0.83551352  0.74350372  0.86274387     1.55600
O1699       O  0.75308270  0.81649757  0.82948095    -0.77400
C1700       C  0.90723682  0.78070611  0.86427334     0.98500
C1701       C  0.81766644  0.76237357  0.92116716     0.93300
O1702       O  0.78661118  0.77592937  0.90963742    -0.82800
O1703       O  0.70350946  0.95152376  0.59533867    -0.82200
C1704       C  0.64507175  0.96625268  0.70492972     0.97100
O1705       O  0.65771087  0.98607520  0.68584209    -0.71300
O1706       O  0.69812248  0.00506208  0.64059445    -0.74900
Al1707     Al  0.65215162  0.98029233  0.64286186     1.49000
C1708       C  0.73240001  0.99883916  0.64872954     0.92400
O1709       O  0.73425801  0.90661739  0.67393358    -0.81100
O1710       O  0.65297072  0.87170319  0.63585835    -0.74700
Al1711     Al  0.71682982  0.92998932  0.63551391     1.90100
O1712       O  0.67991870  0.89429309  0.69202747    -0.73800
O1713       O  0.59858312  0.91693906  0.63537496    -0.73600
O1714       O  0.62877211  0.93881565  0.69596658    -0.79300
O1715       O  0.59883627  0.97017310  0.64319849    -0.77500
O1716       O  0.67093860  0.93893295  0.64714030    -1.13600
O1717       O  0.64708870  0.97519334  0.60013358    -0.72800
C1718       C  0.67289270  0.96574591  0.58363330     0.97900
C1719       C  0.71542693  0.89367990  0.69448822     0.94300
Al1720     Al  0.64225863  0.90815430  0.66320731     1.55600
O1721       O  0.74229896  0.96904874  0.65355369    -0.77400
C1722       C  0.58060690  0.94397737  0.63544317     0.98500
C1723       C  0.67955876  0.86676949  0.61881923     0.93300
O1724       O  0.70338583  0.88936639  0.61551780    -0.82800
O1725       O  0.68808129  0.58313800  0.86715932    -0.82200
C1726       C  0.63789823  0.49924452  0.95551750     0.97100
O1727       O  0.62085536  0.52679206  0.94927400    -0.71300
O1728       O  0.67575832  0.56879280  0.95133233    -0.74900
Al1729     Al  0.63605595  0.56103424  0.92116271     1.49000
C1730       C  0.71017799  0.57504292  0.94929466     0.92400
O1731       O  0.73400231  0.50600003  0.90362976    -0.81100
O1732       O  0.63693760  0.49984686  0.84990476    -0.74700
Al1733     Al  0.70659784  0.54390071  0.88652538     1.90100
O1734       O  0.69239545  0.97020077  0.88986412    -0.73800
O1735       O  0.59065884  0.50232396  0.89437325    -0.73600
O1736       O  0.65208015  0.98314565  0.93598827    -0.79300
O1737       O  0.59107842  0.55654777  0.89290048    -0.77500
O1738       O  0.66255601  0.53262131  0.89994098    -1.13600
O1739       O  0.64894408  0.60140623  0.89942170    -0.72800
C1740       C  0.67027028  0.60686170  0.87805980     0.97900
C1741       C  0.72649589  0.97901275  0.89644710     0.94300
Al1742     Al  0.64400596  0.49163326  0.89235717     1.55600
O1743       O  0.72526758  0.56810960  0.92448504    -0.77400
C1744       C  0.57266154  0.52952050  0.89000874     0.98500
C1745       C  0.66268030  0.50932222  0.83370940     0.93300
O1746       O  0.69364571  0.52229306  0.84626633    -0.82800
O1747       O  0.79505275  0.70565465  0.65727787    -0.82200
C1748       C  0.85401327  0.72477425  0.54845311     0.97100
O1749       O  0.83891106  0.74200997  0.56842521    -0.71300
O1750       O  0.79687571  0.75643219  0.61335529    -0.74900
Al1751     Al  0.84485664  0.73359613  0.61042311     1.49000
C1752       C  0.76290862  0.74825448  0.60469622     0.92400
O1753       O  0.76493875  0.65449986  0.58121835    -0.81100
O1754       O  0.83778509  0.62314460  0.60504167    -0.74700
Al1755     Al  0.78305358  0.68154520  0.61804458     1.90100
O1756       O  0.81319090  0.65643011  0.55285375    -0.73800
O1757       O  0.89715758  0.66795008  0.61201338    -0.73600
O1758       O  0.86943300  0.69682980  0.55567268    -0.79300
O1759       O  0.89794278  0.72221476  0.60925669    -0.77500
O1760       O  0.82643561  0.69261117  0.60386000    -1.13600
O1761       O  0.85166662  0.72668924  0.65250523    -0.72800
C1762       C  0.82620622  0.71870893  0.66926839     0.97900
C1763       C  0.77958472  0.64819164  0.55598984     0.94300
Al1764     Al  0.85264948  0.66341434  0.58341132     1.55600
O1765       O  0.75490705  0.71803787  0.59890244    -0.77400
C1766       C  0.91586313  0.69502417  0.61324543     0.98500
C1767       C  0.81731791  0.61911063  0.62722499     0.93300
O1768       O  0.80410973  0.64449145  0.63955079    -0.82800
O1769       O  0.19810691  0.82261633  0.85763816    -0.82200
C1770       C  0.13896584  0.75225672  0.95041179     0.97100
O1771       O  0.12490514  0.78040491  0.94130929    -0.71300
O1772       O  0.17751850  0.82335721  0.93543084    -0.74900
Al1773     Al  0.13829457  0.80897744  0.90734157     1.49000
C1774       C  0.21302551  0.82248547  0.93707729     0.92400
O1775       O  0.23526080  0.74562442  0.89806456    -0.81100
O1776       O  0.13896487  0.73737309  0.84516448    -0.74700
Al1777     Al  0.21073977  0.78329283  0.87876719     1.90100
O1778       O  0.19082285  0.70939082  0.88644048    -0.73800
O1779       O  0.09194222  0.74704289  0.88942734    -0.73600
O1780       O  0.15140215  0.73165286  0.93157452    -0.79300
O1781       O  0.09312328  0.80003016  0.88070823    -0.77500
O1782       O  0.16506252  0.77634962  0.89136261    -1.13600
O1783       O  0.14965246  0.84376914  0.87842610    -0.72800
C1784       C  0.17585461  0.84647784  0.86057385     0.97900
C1785       C  0.22545091  0.71594254  0.89313955     0.94300
Al1786     Al  0.14503754  0.73518079  0.88849282     1.55600
O1787       O  0.23018851  0.80797855  0.91620184    -0.77400
C1788       C  0.07428347  0.77347808  0.88170644     0.98500
C1789       C  0.16522389  0.74447933  0.82835959     0.93300
O1790       O  0.19592508  0.75941096  0.83928669    -0.82800
O1791       O  0.29424444  0.95078033  0.64624765    -0.82200
C1792       C  0.35440669  0.96357805  0.53700706     0.97100
O1793       O  0.34003329  0.98262728  0.55599219    -0.71300
O1794       O  0.29828897  0.00100166  0.60014844    -0.74900
Al1795     Al  0.34544379  0.97726728  0.59878311     1.49000
C1796       C  0.26414057  0.99315492  0.59248709     0.92400
O1797       O  0.26420368  0.90017011  0.56991293    -0.81100
O1798       O  0.33910629  0.86671382  0.60018008    -0.74700
Al1799     Al  0.28194276  0.92641980  0.60712460     1.90100
O1800       O  0.31586008  0.89547878  0.54561140    -0.73800
O1801       O  0.39687215  0.91157619  0.60545792    -0.73600
O1802       O  0.37080201  0.93643239  0.54600914    -0.79300
O1803       O  0.39862691  0.96544728  0.59916215    -0.77500
O1804       O  0.32663934  0.93588963  0.59417970    -1.13600
O1805       O  0.35073597  0.97378970  0.64174020    -0.72800
C1806       C  0.32427732  0.96594370  0.65787529     0.97900
C1807       C  0.28093310  0.89137439  0.54633959     0.94300
Al1808     Al  0.35373512  0.90512175  0.57618359     1.55600
O1809       O  0.25554058  0.96309730  0.58727618    -0.77400
C1810       C  0.41569944  0.93833319  0.60613323     0.98500
C1811       C  0.31625110  0.86333831  0.62075401     0.93300
O1812       O  0.29892212  0.88854212  0.62940494    -0.82800
O1813       O  0.20780003  0.69909081  0.59122380    -0.82200
C1814       C  0.14140693  0.70819898  0.69927028     0.97100
O1815       O  0.15614907  0.72895001  0.68198694    -0.71300
O1816       O  0.19951415  0.75096157  0.63920344    -0.74900
Al1817     Al  0.15364812  0.72532661  0.63860803     1.49000
C1818       C  0.23399167  0.74465872  0.64638746     0.92400
O1819       O  0.23641047  0.65308708  0.66969701    -0.81100
O1820       O  0.15639696  0.61732167  0.62595316    -0.74700
Al1821     Al  0.22002601  0.67657855  0.63130726     1.90100
O1822       O  0.18172782  0.63604215  0.68435197    -0.73800
O1823       O  0.10108046  0.66133071  0.62715048    -0.73600
O1824       O  0.12900801  0.67980412  0.68891857    -0.79300
O1825       O  0.10036996  0.71417697  0.63672031    -0.77500
O1826       O  0.17317410  0.68404893  0.64169402    -1.13600
O1827       O  0.15103627  0.72271151  0.59528133    -0.72800
C1828       C  0.17767211  0.71396603  0.57929825     0.97900
C1829       C  0.21724121  0.63757864  0.68847534     0.94300
Al1830     Al  0.14439861  0.65157441  0.65522737     1.55600
O1831       O  0.24405578  0.71498653  0.65068853    -0.77400
C1832       C  0.08250320  0.68784170  0.62850174     0.98500
C1833       C  0.18456903  0.61362393  0.61037222     0.93300
O1834       O  0.20896185  0.63629347  0.61023725    -0.82800
O1835       O  0.28703048  0.57025608  0.88219475    -0.82200
C1836       C  0.34576775  0.49740078  0.78770155     0.97100
O1837       O  0.36077584  0.52500469  0.79766633    -0.71300
O1838       O  0.30555170  0.56631606  0.79973343    -0.74900
Al1839     Al  0.34398970  0.55513356  0.82958015     1.49000
C1840       C  0.27035494  0.56913012  0.80021271     0.92400
O1841       O  0.24558945  0.49512303  0.83879987    -0.81100
O1842       O  0.34107787  0.48477959  0.89211282    -0.74700
Al1843     Al  0.27160609  0.53201683  0.85931148     1.90100
O1844       O  0.29134598  0.95892666  0.85004356    -0.73800
O1845       O  0.38943985  0.49455380  0.85024803    -0.73600
O1846       O  0.33324997  0.97859567  0.80612922    -0.79300
O1847       O  0.38780065  0.54801998  0.85828598    -0.77500
O1848       O  0.31676579  0.52359338  0.84614904    -1.13600
O1849       O  0.33001496  0.59208071  0.85576730    -0.72800
C1850       C  0.30629738  0.59502093  0.87578169     0.97900
C1851       C  0.25700774  0.96605574  0.84267541     0.94300
Al1852     Al  0.33597880  0.48235148  0.84909826     1.55600
O1853       O  0.25335539  0.55830635  0.82277833    -0.77400
C1854       C  0.40671009  0.52126685  0.85867938     0.98500
C1855       C  0.31503198  0.49238137  0.90886486     0.93300
O1856       O  0.28464128  0.50739976  0.89802015    -0.82800
C1857       C  0.22418527  0.58644548  0.71969250    -0.06200
C1858       C  0.23457099  0.62013605  0.71630902    -0.00300
C1859       C  0.25327996  0.63758262  0.74191390    -0.08800
C1860       C  0.26119576  0.62055436  0.77018731    -0.06200
C1861       C  0.25100851  0.58684863  0.77348858    -0.00300
C1862       C  0.23274971  0.56927205  0.74779585    -0.08700
C1863       C  0.22328593  0.53241389  0.75006240     0.61600
H1864       H  0.20898045  0.57371685  0.70000631     0.12300
H1865       H  0.27672623  0.63311827  0.78981816     0.12300
C1866       C  0.26468702  0.67392716  0.73928522     0.61900
F1867       F  0.20542656  0.51989863  0.72243449    -0.23300
F1868       F  0.19932493  0.52786911  0.77312978    -0.20600
F1869       F  0.25625498  0.51426409  0.75727220    -0.20300
F1870       F  0.23295023  0.69322653  0.73080784    -0.20400
F1871       F  0.28995903  0.67682284  0.71696962    -0.20700
F1872       F  0.28207134  0.68642260  0.76709034    -0.23400
C1873       C  0.27908144  0.83059283  0.65620227    -0.06200
C1874       C  0.30503218  0.82991500  0.63324660    -0.00300
C1875       C  0.31320705  0.79825186  0.62003735    -0.08800
C1876       C  0.29184094  0.76989540  0.62750016    -0.06200
C1877       C  0.26264527  0.77212675  0.64732010    -0.00300
C1878       C  0.25810879  0.80234107  0.66358937    -0.08700
C1879       C  0.22940460  0.80614401  0.68724377     0.62400
H1880       H  0.27324641  0.85408605  0.66744049     0.12300
H1881       H  0.29562127  0.74624664  0.61581675     0.12300
C1882       C  0.34266603  0.79422909  0.59703561     0.61900
F1883       F  0.24271798  0.82842169  0.71048043    -0.23300
F1884       F  0.22270048  0.77604130  0.70128196    -0.20600
F1885       F  0.19564926  0.81818082  0.67260735    -0.20300
F1886       F  0.37701975  0.80758908  0.60943740    -0.20400
F1887       F  0.33058909  0.81033309  0.56980664    -0.20700
F1888       F  0.34864737  0.76097742  0.58980894    -0.23400
C1889       C  0.24165443  0.54997540  0.57068774    -0.06200
C1890       C  0.23549781  0.52152431  0.58824713    -0.00300
C1891       C  0.20438497  0.52145019  0.60682174    -0.08800
C1892       C  0.18395538  0.55145255  0.61034439    -0.06200
C1893       C  0.19312755  0.58100025  0.59539762    -0.00300
C1894       C  0.21955881  0.57907414  0.57268363    -0.08700
C1895       C  0.22662137  0.60787724  0.55142507     0.61600
H1896       H  0.26452607  0.54969542  0.55567298     0.12300
H1897       H  0.16323045  0.55280125  0.62718317     0.12300
C1898       C  0.20014323  0.99240611  0.63404703     0.61900
F1899       F  0.23108249  0.59584741  0.52190003    -0.23300
F1900       F  0.25941637  0.62460998  0.56275912    -0.20600
F1901       F  0.19640196  0.63004326  0.54882313    -0.20300
F1902       F  0.23272030  0.98729993  0.65375652    -0.20400
F1903       F  0.19121280  0.96352023  0.61713207    -0.20700
F1904       F  0.17075086  0.99885367  0.65221097    -0.23400
C1905       C  0.33880816  0.51507039  0.73283689    -0.06200
C1906       C  0.34586842  0.98890913  0.75461704    -0.00300
C1907       C  0.34672398  0.95527765  0.74382237    -0.08800
C1908       C  0.33775109  0.94877421  0.71198974    -0.06200
C1909       C  0.32939005  0.97467156  0.69094466    -0.00300
C1910       C  0.33056520  0.00835339  0.70134953    -0.08700
C1911       C  0.32531076  0.53860816  0.67870391     0.61600
H1912       H  0.34016040  0.54049693  0.74167862     0.12300
H1913       H  0.33781651  0.92334540  0.70313081     0.12300
C1914       C  0.35809775  0.92636776  0.76534186     0.61900
F1915       F  0.32583874  0.56888381  0.69451988    -0.23300
F1916       F  0.29039157  0.53554946  0.66138323    -0.20600
F1917       F  0.35376320  0.53934699  0.65893447    -0.20300
F1918       F  0.32870289  0.91875820  0.78297079    -0.20400
F1919       F  0.39028577  0.93473361  0.78473771    -0.20700
F1920       F  0.36636580  0.89788078  0.74886678    -0.23400
C1921       C  0.32848623  0.94686703  0.98340735    -0.06200
C1922       C  0.34826722  0.97174986  0.50376952    -0.00300
C1923       C  0.34868449  0.00514516  0.49295340    -0.08800
C1924       C  0.33583338  0.50916213  0.96228457    -0.06200
C1925       C  0.32176677  0.48386050  0.94181129    -0.00300
C1926       C  0.31712934  0.95466707  0.95231267    -0.08700
C1927       C  0.29863198  0.92804497  0.93061365     0.61600
H1928       H  0.32231070  0.92241828  0.99222491     0.12300
H1929       H  0.33747374  0.53431160  0.95349107     0.12300
C1930       C  0.36321417  0.03413761  0.51374537     0.61900
F1931       F  0.29405802  0.89818981  0.94575496    -0.23300
F1932       F  0.32894522  0.41972172  0.90539669    -0.20600
F1933       F  0.26319129  0.93879391  0.91837389    -0.20300
F1934       F  0.40878043  0.51544461  0.52995235    -0.20400
F1935       F  0.33605009  0.04306563  0.53323858    -0.20700
F1936       F  0.39826053  0.55245381  0.49172135    -0.23400
C1937       C  0.21980963  0.87158355  0.97186117    -0.06200
C1938       C  0.23276669  0.83934949  0.96467081    -0.00300
C1939       C  0.25708177  0.82208159  0.98698622    -0.08800
C1940       C  0.27928037  0.84495723  0.50891276    -0.06200
C1941       C  0.26178353  0.87425873  0.51885845    -0.00300
C1942       C  0.23111128  0.88754182  0.00042380    -0.08700
C1943       C  0.21710039  0.92247440  0.00711315     0.61600
H1944       H  0.20018708  0.88405197  0.95488037     0.12300
H1945       H  0.30356002  0.83513169  0.52318536     0.12300
C1946       C  0.28461128  0.79562968  0.47243297     0.61900
F1947       F  0.19318948  0.93479547  0.98255057    -0.23300
F1948       F  0.24435915  0.94646805  0.51077610    -0.20600
F1949       F  0.19721251  0.92184009  0.03311138    -0.20300
F1950       F  0.29231493  0.78628515  0.95661579    -0.20400
F1951       F  0.23859168  0.76617300  0.97373701    -0.20700
F1952       F  0.31338828  0.78589666  0.49459385    -0.23400
C1953       C  0.16266379  0.76684348  0.00439955    -0.06200
C1954       C  0.14371216  0.74374103  0.98369883    -0.00300
C1955       C  0.13497593  0.71147023  0.99432480    -0.08800
C1956       C  0.14829942  0.70080163  0.52679125    -0.06200
C1957       C  0.17228868  0.72179005  0.54597112    -0.00300
C1958       C  0.18410124  0.75269369  0.53452372    -0.08700
C1959       C  0.20970694  0.77612562  0.55485334     0.61600
H1960       H  0.16935331  0.79129600  0.99581850     0.12300
H1961       H  0.13839394  0.67793869  0.53658691     0.12300
C1962       C  0.11186551  0.68652512  0.97364409     0.61900
F1963       F  0.21823021  0.80477880  0.53923318    -0.23300
F1964       F  0.24342031  0.75999513  0.56432348    -0.20600
F1965       F  0.19200063  0.78562614  0.58066334    -0.20300
F1966       F  0.13421902  0.67263906  0.95238414    -0.20400
F1967       F  0.08090700  0.70234725  0.95803922    -0.20700
F1968       F  0.09849176  0.65908259  0.49316908    -0.23400
C1969       C  0.14315381  0.75796293  0.77415180    -0.06200
C1970       C  0.15923619  0.73450486  0.79540502    -0.00300
C1971       C  0.16407422  0.70096487  0.78566563    -0.08800
C1972       C  0.15516104  0.69267072  0.75412986    -0.06200
C1973       C  0.14101883  0.71663163  0.73251835    -0.00300
C1974       C  0.13283648  0.74928701  0.74289551    -0.08700
C1975       C  0.11294039  0.77521300  0.72168248     0.61600
H1976       H  0.13769290  0.78303433  0.78230844     0.12300
H1977       H  0.16093545  0.66773673  0.74581856     0.12300
C1978       C  0.17930275  0.67422010  0.80828838     0.61900
F1979       F  0.08932828  0.79489706  0.73797015    -0.23300
F1980       F  0.09052997  0.76047839  0.69723620    -0.20600
F1981       F  0.13981236  0.79542710  0.71007866    -0.20300
F1982       F  0.15526110  0.67054897  0.83139511    -0.20400
F1983       F  0.21500825  0.68321336  0.82153632    -0.20700
F1984       F  0.18229066  0.64345976  0.79380871    -0.23400
C1985       C  0.17509338  0.90903437  0.86050620    -0.06200
C1986       C  0.18543284  0.87910283  0.84624045    -0.00300
C1987       C  0.21316176  0.88084369  0.82444848    -0.08800
C1988       C  0.23533453  0.90998016  0.82337322    -0.06200
C1989       C  0.22781716  0.93884032  0.84028111    -0.00300
C1990       C  0.19515974  0.93927214  0.85713867    -0.08700
C1991       C  0.18252412  0.97095158  0.87272148     0.61600
H1992       H  0.15308778  0.90809412  0.87623443     0.12300
H1993       H  0.25926615  0.91007320  0.80946510     0.12300
C1994       C  0.22181574  0.85177218  0.80348788     0.61900
F1995       F  0.15050825  0.96567337  0.88813501    -0.23300
F1996       F  0.17374031  0.99510904  0.85048631    -0.20600
F1997       F  0.21112978  0.98266487  0.89413371    -0.20300
F1998       F  0.19026061  0.83144995  0.79704730    -0.20400
F1999       F  0.25167992  0.83324616  0.81755453    -0.20700
F2000       F  0.23201746  0.86340086  0.77539844    -0.23400
C2001       C  0.30509407  0.65748409  0.87277805    -0.06200
C2002       C  0.29607702  0.62847110  0.88871492    -0.00300
C2003       C  0.26991124  0.63155679  0.91170518    -0.08800
C2004       C  0.24779579  0.66073046  0.91271018    -0.06200
C2005       C  0.25408739  0.68849830  0.89446933    -0.00300
C2006       C  0.28535536  0.68792889  0.87605228    -0.08700
C2007       C  0.29689083  0.71864482  0.85879172     0.61600
H2008       H  0.32595971  0.65563662  0.85609986     0.12300
H2009       H  0.22501160  0.66182372  0.92778367     0.12300
C2010       C  0.26367775  0.60424151  0.93476378     0.61900
F2011       F  0.32853228  0.71262506  0.84302812    -0.23300
F2012       F  0.30583110  0.74445502  0.87969964    -0.20600
F2013       F  0.26756913  0.72855475  0.83737579    -0.20300
F2014       F  0.29680249  0.58635031  0.94204968    -0.20400
F2015       F  0.23505908  0.58297686  0.92252656    -0.20700
F2016       F  0.25318582  0.61789440  0.96220115    -0.23400
C2017       C  0.97664119  0.66310574  0.61655455    -0.06200
C2018       C  0.95868600  0.69450693  0.61689048    -0.00300
C2019       C  0.98204952  0.72375006  0.61833758    -0.08800
C2020       C  0.02195208  0.71995993  0.62188473    -0.06200
C2021       C  0.03986032  0.68852898  0.62224553    -0.00300
C2022       C  0.01653160  0.65945435  0.61821715    -0.08700
C2023       C  0.03291003  0.62452816  0.61528767     0.61600
H2024       H  0.95894402  0.64097766  0.61441198     0.12300
H2025       H  0.03975304  0.74202431  0.62411636     0.12300
C2026       C  0.96592032  0.75905298  0.61540861     0.61900
F2027       F  0.00478172  0.60057220  0.60925662    -0.23300
F2028       F  0.05408036  0.61592159  0.64265456    -0.20600
F2029       F  0.05553307  0.62351647  0.59091184    -0.20300
F2030       F  0.94316166  0.76552183  0.63894864    -0.20400
F2031       F  0.94499721  0.76258085  0.58685496    -0.20700
F2032       F  0.99418898  0.78319674  0.61738889    -0.23400
C2033       C  0.46601621  0.55283110  0.87719403    -0.06200
C2034       C  0.44919682  0.52196774  0.86767366    -0.00300
C2035       C  0.47352813  0.49363769  0.86619844    -0.08800
C2036       C  0.51319505  0.49778868  0.87327180    -0.06200
C2037       C  0.53004776  0.52874894  0.88220334    -0.00300
C2038       C  0.50568544  0.55684147  0.88466992    -0.08700
C2039       C  0.52081960  0.59102503  0.89546632     0.61600
H2040       H  0.44763214  0.57430326  0.87862654     0.12300
H2041       H  0.53166793  0.47640223  0.87167086     0.12300
C2042       C  0.45844959  0.45891261  0.85716855     0.61900
F2043       F  0.49186589  0.61387218  0.89825713    -0.23300
F2044       F  0.54387802  0.60356433  0.87422117    -0.20600
F2045       F  0.54138556  0.10432939  0.89262072    -0.20300
F2046       F  0.44107155  0.45917144  0.82708141    -0.20400
F2047       F  0.43272903  0.44895812  0.87744778    -0.20700
F2048       F  0.48710190  0.43518855  0.85834485    -0.23400
C2049       C  0.71532507  0.58894700  0.00544842    -0.06200
C2050       C  0.73059263  0.59251959  0.97661729    -0.00300
C2051       C  0.75985503  0.61623390  0.97420787    -0.08800
C2052       C  0.78201724  0.60654245  0.51369647    -0.06200
C2053       C  0.75972430  0.62907206  0.52962256    -0.00300
C2054       C  0.72148075  0.63450551  0.51818623    -0.08700
C2055       C  0.69641502  0.65878687  0.53402062     0.61600
H2056       H  0.69298816  0.57071561  0.00715454     0.12300
H2057       H  0.81143444  0.60274950  0.52258157     0.12300
C2058       C  0.77885680  0.62074995  0.94446302     0.61900
F2059       F  0.68231497  0.57811838  0.05908057    -0.23300
F2060       F  0.71351765  0.68993623  0.53664296    -0.20600
F2061       F  0.69090941  0.64721998  0.56329408    -0.20300
F2062       F  0.75225677  0.63023420  0.92059550    -0.20400
F2063       F  0.79567026  0.59101958  0.93665408    -0.20700
F2064       F  0.82761041  0.56083554  0.48752139    -0.23400
C2065       C  0.52127666  0.91441206  0.61526764    -0.06200
C2066       C  0.53828862  0.94415953  0.62748008    -0.00300
C2067       C  0.51440611  0.97202379  0.63251677    -0.08800
C2068       C  0.47469727  0.96840087  0.62594947    -0.06200
C2069       C  0.45783099  0.93854104  0.61404855    -0.00300
C2070       C  0.48169063  0.91108914  0.60807263    -0.08700
C2071       C  0.46611866  0.87869591  0.59311713     0.61600
H2072       H  0.53946516  0.89340578  0.61112950     0.12300
H2073       H  0.45621802  0.98924047  0.63003649     0.12300
C2074       C  0.53003778  0.00562340  0.64461373     0.61900
F2075       F  0.49481396  0.85684762  0.58675303    -0.23300
F2076       F  0.44494107  0.88553770  0.56526806    -0.20600
F2077       F  0.44367013  0.86260882  0.61284551    -0.20300
F2078       F  0.55372964  0.01862976  0.62405765    -0.20400
F2079       F  0.54991466  0.00183035  0.67356999    -0.20700
F2080       F  0.50146162  0.02877041  0.64770890    -0.23400
C2081       C  0.68199745  0.80518539  0.62506109    -0.06200
C2082       C  0.68748375  0.83284612  0.60616339    -0.00300
C2083       C  0.71127312  0.82886252  0.58175057    -0.08800
C2084       C  0.73483155  0.80043345  0.58130657    -0.06200
C2085       C  0.73269016  0.77443655  0.60265149    -0.00300
C2086       C  0.70418777  0.77586235  0.62365573    -0.08700
C2087       C  0.69954048  0.74788886  0.64643946     0.61600
H2088       H  0.66336730  0.80805785  0.64335522     0.12300
H2089       H  0.75553289  0.79877823  0.56441590     0.12300
C2090       C  0.71352027  0.85470861  0.55655891     0.61900
F2091       F  0.66977470  0.75388966  0.66432865    -0.23300
F2092       F  0.73250872  0.74475059  0.66622305    -0.20600
F2093       F  0.69208797  0.71815204  0.63047053    -0.20300
F2094       F  0.74728027  0.87228487  0.56185587    -0.20400
F2095       F  0.68331462  0.87688988  0.55535960    -0.20700
F2096       F  0.71239788  0.83890192  0.52789209    -0.23400
C2097       C  0.79059079  0.52540559  0.62963084    -0.06200
C2098       C  0.75928162  0.52729489  0.64736147    -0.00300
C2099       C  0.75196731  0.55789626  0.66233480    -0.08800
C2100       C  0.77448337  0.58590352  0.65736561    -0.06200
C2101       C  0.80332158  0.58540631  0.63690650    -0.00300
C2102       C  0.81236702  0.55406524  0.62354617    -0.08700
C2103       C  0.84344346  0.55077915  0.60189074     0.61600
H2104       H  0.79382234  0.00121767  0.61831770     0.12300
H2105       H  0.76721974  0.60934312  0.66797694     0.12300
C2106       C  0.71851584  0.56252878  0.68150681     0.61900
F2107       F  0.84505024  0.01685138  0.59050346    -0.23300
F2108       F  0.87683850  0.56470973  0.61570231    -0.20600
F2109       F  0.83253962  0.56685367  0.57427116    -0.20300
F2110       F  0.71280015  0.53432832  0.69844582    -0.20400
F2111       F  0.68600862  0.56908581  0.66200397    -0.20700
F2112       F  0.72468996  0.58882476  0.70244085    -0.23400
C2113       C  0.68286355  0.98981458  0.00149335    -0.06200
C2114       C  0.64481211  0.98925632  0.98878455    -0.00300
C2115       C  0.61617434  0.97747926  0.00632829    -0.08800
C2116       C  0.62805313  0.96870741  0.53679340    -0.06200
C2117       C  0.66585470  0.97251509  0.55017971    -0.00300
C2118       C  0.69340922  0.98709349  0.53278668    -0.08700
C2119       C  0.73413830  0.99307974  0.54643342     0.61600
H2120       H  0.70400390  0.99943800  0.98738012     0.12300
H2121       H  0.60730810  0.95757662  0.55047642     0.12300
C2122       C  0.57492423  0.97598108  0.99280683     0.61900
F2123       F  0.75517017  0.00985215  0.52603707    -0.23300
F2124       F  0.75181952  0.96284283  0.55333032    -0.20600
F2125       F  0.73431553  0.01224415  0.57318522    -0.20300
F2126       F  0.56177860  0.00796647  0.98633976    -0.20400
F2127       F  0.55733512  0.44799414  0.00830710    -0.20700
F2128       F  0.57187163  0.95719348  0.96566695    -0.23400
C2129       C  0.61684708  0.98124452  0.75280690    -0.06200
C2130       C  0.64976963  0.97569255  0.73799664    -0.00300
C2131       C  0.68895034  0.48344583  0.75495181    -0.08800
C2132       C  0.69061129  0.49473901  0.78571304    -0.06200
C2133       C  0.65778026  0.50223219  0.79998246    -0.00300
C2134       C  0.61868516  0.99308295  0.78365196    -0.08700
C2135       C  0.58175142  0.00071518  0.79770254     0.61600
H2136       H  0.58952929  0.97680761  0.73969818     0.12300
H2137       H  0.71817526  0.49657740  0.79913497     0.12300
C2138       C  0.72709084  0.47553204  0.74315366     0.61900
F2139       F  0.57556365  0.97741188  0.82010104    -0.23300
F2140       F  0.58352831  0.03239305  0.81083373    -0.20600
F2141       F  0.55065923  0.99982196  0.77554420    -0.20300
F2142       F  0.74964929  0.50389808  0.74532958    -0.20400
F2143       F  0.72409367  0.46440759  0.71287650    -0.20700
F2144       F  0.74536823  0.45118970  0.76157193    -0.23400
C2145       C  0.01348291  0.80566050  0.87460777    -0.06200
C2146       C  0.03152077  0.77422653  0.87567888    -0.00300
C2147       C  0.00826289  0.74517165  0.87131823    -0.08800
C2148       C  0.96828477  0.74876939  0.86896184    -0.06200
C2149       C  0.95016179  0.78019710  0.86854656    -0.00300
C2150       C  0.97352795  0.80935777  0.87001316    -0.08700
C2151       C  0.95717357  0.84438587  0.86566120     0.61600
H2152       H  0.03116690  0.82778295  0.87720477     0.12300
H2153       H  0.95072400  0.72654627  0.86688898     0.12300
C2154       C  0.02491120  0.71043051  0.86785843     0.61900
F2155       F  0.98533833  0.86852755  0.86617475    -0.23300
F2156       F  0.93467934  0.85200182  0.88919335    -0.20600
F2157       F  0.93586941  0.84631541  0.83711732    -0.20300
F2158       F  0.04320055  0.70017627  0.89588937    -0.20400
F2159       F  0.05034692  0.71077681  0.84546508    -0.20700
F2160       F  0.99712920  0.68698223  0.85862228    -0.23400
C2161       C  0.76667576  0.83156704  0.74920140    -0.06200
C2162       C  0.75061314  0.83906093  0.77714748    -0.00300
C2163       C  0.72395290  0.86531095  0.77764770    -0.08800
C2164       C  0.71541713  0.88380090  0.75037905    -0.06200
C2165       C  0.73270045  0.87720895  0.72286989    -0.00300
C2166       C  0.75840119  0.85033714  0.72206254    -0.08700
C2167       C  0.77627390  0.84104835  0.69264730     0.61600
H2168       H  0.78696564  0.81124450  0.74911099     0.12300
H2169       H  0.69446663  0.90360401  0.75014163     0.12300
C2170       C  0.70500381  0.87419269  0.80668251     0.61900
F2171       F  0.80003050  0.81357281  0.69685538    -0.23300
F2172       F  0.79759787  0.86759550  0.68363288    -0.20600
F2173       F  0.74812528  0.83342599  0.66916238    -0.20300
F2174       F  0.73215649  0.88341902  0.83041104    -0.20400
F2175       F  0.68499264  0.84686415  0.81581020    -0.20700
F2176       F  0.67969468  0.90050294  0.80173308    -0.23400
C2177       C  0.80720184  0.71123107  0.72201947    -0.06200
C2178       C  0.83296124  0.72522042  0.70313292    -0.00300
C2179       C  0.86403872  0.74485270  0.71708451    -0.08800
C2180       C  0.86651516  0.75075055  0.74910541    -0.06200
C2181       C  0.83973965  0.73808176  0.76764545    -0.00300
C2182       C  0.80991366  0.71720072  0.75411684    -0.08700
C2183       C  0.78018419  0.70201603  0.77284147     0.61600
H2184       H  0.78439973  0.69568110  0.71131669     0.12300
H2185       H  0.88949286  0.76593656  0.76007925     0.12300
C2186       C  0.89483511  0.75991994  0.69911398     0.61900
F2187       F  0.75315244  0.68372766  0.75447978    -0.23300
F2188       F  0.76140312  0.72720809  0.78724860    -0.20600
F2189       F  0.79761271  0.68054236  0.79476023    -0.20300
F2190       F  0.87866411  0.78117914  0.67644562    -0.20400
F2191       F  0.91456726  0.73451448  0.68589782    -0.20700
F2192       F  0.92116616  0.77848102  0.71793165    -0.23400
C2193       C  0.84797330  0.72567398  0.96094141    -0.06200
C2194       C  0.82509336  0.75400469  0.95430380    -0.00300
C2195       C  0.81363666  0.77378172  0.97884061    -0.08800
C2196       C  0.82689664  0.76454169  0.50917737    -0.06200
C2197       C  0.85118357  0.73701391  0.51629817    -0.00300
C2198       C  0.86060996  0.71636594  0.99119417    -0.08700
C2199       C  0.89843398  0.69324236  0.49801767     0.61600
H2200       H  0.85620305  0.71051070  0.94185203     0.12300
H2201       H  0.81415269  0.77739225  0.52768683     0.12300
C2202       C  0.79124114  0.80585496  0.97302758     0.61900
F2203       F  0.90200995  0.67735262  0.96813364    -0.23300
F2204       F  0.88115962  0.66415532  0.50653662    -0.20600
F2205       F  0.92625051  0.70304253  0.52111196    -0.20300
F2206       F  0.75549658  0.79870802  0.95846914    -0.20400
F2207       F  0.81046117  0.82657523  0.95447041    -0.20700
F2208       F  0.78659042  0.82300019  0.00035149    -0.23400
C2209       C  0.78111661  0.89862316  0.91355915    -0.06200
C2210       C  0.79992738  0.89470453  0.88648026    -0.00300
C2211       C  0.80125806  0.92267537  0.86637089    -0.08800
C2212       C  0.77936660  0.95140181  0.87199987    -0.06200
C2213       C  0.75673199  0.95305810  0.89690758    -0.00300
C2214       C  0.75945112  0.92720578  0.91903142    -0.08700
C2215       C  0.73842075  0.92935966  0.94784597     0.61600
H2216       H  0.78072430  0.87784229  0.92932731     0.12300
H2217       H  0.77745927  0.97180041  0.85560727     0.12300
C2218       C  0.82354896  0.92183616  0.83807966     0.61900
F2219       F  0.69980686  0.92556428  0.93980732    -0.23300
F2220       F  0.75019548  0.90493357  0.96915949    -0.20600
F2221       F  0.74534584  0.96011028  0.96200697    -0.20300
F2222       F  0.80797373  0.89854222  0.81670533    -0.20400
F2223       F  0.86106994  0.91368979  0.84706699    -0.20700
F2224       F  0.82323146  0.95252077  0.82347720    -0.23400
C2225       C  0.68204449  0.66685610  0.89158211    -0.06200
C2226       C  0.67989175  0.64161150  0.86861645    -0.00300
C2227       C  0.69637681  0.64798026  0.84049289    -0.08800
C2228       C  0.71920965  0.67668747  0.83842629    -0.06200
C2229       C  0.72475626  0.70008384  0.86275005    -0.00300
C2230       C  0.70447230  0.69590117  0.88922978    -0.08700
C2231       C  0.70886167  0.72068442  0.91604032     0.61600
H2232       H  0.66934336  0.66212886  0.91290388     0.12300
H2233       H  0.73395980  0.68021312  0.81807455     0.12300
C2234       C  0.69248050  0.62379400  0.81312499     0.61900
F2235       F  0.68513170  0.71321678  0.93869997    -0.23300
F2236       F  0.70000540  0.75249094  0.90536949    -0.20600
F2237       F  0.74596046  0.72009646  0.92954566    -0.20300
F2238       F  0.65767494  0.60758629  0.81114134    -0.20400
F2239       F  0.72148207  0.60047265  0.81638662    -0.20700
F2240       F  0.69468970  0.64057106  0.78548671    -0.23400
loop_ 
_geom_bond_atom_site_label_1 
_geom_bond_atom_site_label_2 
_geom_bond_distance 
_geom_bond_site_symmetry_2 
_ccdc_geom_bond_type 
O1           C16   1.253       .  A
O1           Al9   1.867       .  S
C2           O12   1.262       .  A
C2            O3   1.279       .  A
C2          C501   1.479       .  S
O3           Al5   1.945       .  S
O4            C6   1.249       .  A
O4           Al5   1.819       .  S
Al5          O13   1.911       .  S
Al5          O15   1.944       .  S
Al5          O14   1.776       .  S
C6           O19   1.272       .  A
C6          C482   1.475       .  S
O7           C17   1.251       .  A
O7           Al9   1.907       .  S
O8           C21   1.263       .  A
O8          Al18   1.833       .  S
Al9          O22   1.963       .  S
Al9          O19   1.952       .  S
Al9          O14   1.772       .  S
O10          C17   1.259       .  A
O10         Al18   1.949       .  S
O11          C20   1.265       .  A
O11         Al18   1.948       .  S
O12         Al18   1.860       .  S
O13          C20   1.258       .  A
O14         Al18   1.783       .  S
O15          C16   1.264       .  A
C16         C530   1.507       .  S
C17         C549   1.500       .  S
C20         C469   1.513       .  S
C21          O22   1.283       .  A
C21         C514   1.473       .  S
O23          C38   1.283       .  A
O23         Al31   1.960       .  S
C24          O34   1.280       .  A
C24          O25   1.264       .  A
C24         C450   1.477       .  S
O25         Al27   1.873       .  S
O26          C28   1.253       .  A
O26         Al27   1.917       .  S
Al27         O35   1.934       .  S
Al27         O37   1.865       .  S
Al27         O36   1.785       .  S
C28          O41   1.255       .  A
C28        C1538   1.496       .  S
O29          C39   1.273       .  A
O29         Al31   1.956       .  S
O30          C43   1.265       .  A
O30         Al40   1.934       .  S
Al31         O44   1.870       .  S
Al31         O41   1.922       .  S
Al31         O36   1.780       .  S
O32          C39   1.247       .  A
O32         Al40   1.819       .  S
O33          C42   1.253       .  A
O33         Al40   1.901       .  S
O34         Al40   1.964       .  S
O35          C42   1.257       .  A
O36         Al40   1.784       .  S
O37          C38   1.270       .  A
C38         C437   1.475       .  S
C39         C485   1.474       .  S
C42         C386   1.499       .  S
C43          O44   1.253       .  A
C43         C402   1.494       .  S
O45          C60   1.255       .  A
O45         Al53   1.877       .  S
C46          O47   1.274       .  A
C46        O1176   1.258   1_545  A
C46        C1554   1.457   1_545  S
O47         Al49   1.947       .  S
O48          C50   1.251       .  A
O48         Al49   1.835       .  S
Al49         O57   1.906       .  S
Al49         O59   1.947       .  S
Al49         O58   1.783       .  S
C50          O63   1.273       .  A
C50         C370   1.484       .  S
O51        C1181   1.255   1_545  A
O51         Al53   1.914       .  S
O52          C65   1.260       .  A
O52         Al62   1.857   1_545  S
Al53         O66   1.962       .  S
Al53         O63   1.956       .  S
Al53         O58   1.771       .  S
O54          C61   1.261       .  A
O54       Al1182   1.925       .  S
O55          C64   1.264       .  A
O55         Al62   1.928   1_545  S
O56        C1166   1.256       .  A
O56       Al1182   1.863       .  S
O57          C64   1.259       .  A
O58         Al62   1.783   1_545  S
O59          C60   1.267       .  A
C60         C546   1.501       .  S
C61        O1171   1.260       .  A
C61         C533   1.488       .  S
Al62       O1174   1.926       .  S
Al62       O1176   1.855       .  S
C64         C357   1.492       .  S
C65          O66   1.283       .  A
C65         C453   1.487       .  S
O67          C82   1.278       .  A
O67         Al75   1.957       .  S
C68          O78   1.271       .  A
C68          O69   1.258       .  A
C68         C517   1.472       .  S
O69         Al71   1.839       .  S
O70          C72   1.264       .  A
O70         Al71   1.942       .  S
Al71         O79   1.926       .  S
Al71         O81   1.834       .  S
Al71         O80   1.770       .  S
C72          O85   1.259       .  A
C72         C405   1.491       .  S
O73          C83   1.276       .  A
O73         Al75   1.970       .  S
O74          C87   1.269       .  A
O74         Al84   1.975       .  S
Al75         O88   1.872       .  S
Al75         O85   1.910       .  S
Al75         O80   1.760       .  S
O76          C83   1.252       .  A
O76         Al84   1.843       .  S
O77          C86   1.266       .  A
O77         Al84   1.905       .  S
O78         Al84   1.939       .  S
O79          C86   1.263       .  A
O80         Al84   1.777       .  S
O81          C82   1.250       .  A
C82         C498   1.480       .  S
C83         C373   1.479       .  S
C86         C338   1.499       .  S
C87          O88   1.254       .  A
C87         C421   1.514       .  S
O89         C104   1.250       .  A
O89         Al97   1.863       .  S
C90         O100   1.259       .  A
C90          O91   1.277       .  A
C90         C274   1.466       .  S
O91         Al93   1.959       .  S
O92          C94   1.249       .  A
O92         Al93   1.829       .  S
Al93        O101   1.910       .  S
Al93        O103   1.960       .  S
Al93        O102   1.778       .  S
C94         O107   1.272       .  A
C94         C258   1.479       .  S
O95         C105   1.254       .  A
O95         Al97   1.904       .  S
O96         C109   1.262       .  A
O96        Al106   1.862       .  S
Al97        O110   1.957       .  S
Al97        O107   1.959       .  S
Al97        O102   1.775       .  S
O98         C105   1.260       .  A
O98        Al106   1.925       .  S
O99         C108   1.262       .  A
O99        Al106   1.940       .  S
O100       Al106   1.861       .  S
O101        C108   1.262       .  A
O102       Al106   1.783       .  S
O103        C104   1.271       .  A
C104        C306   1.508       .  S
C105        C325   1.486       .  S
C108        C466   1.511       .  S
C109        O110   1.277       .  A
C109        C290   1.462       .  S
O111        C126   1.280       .  A
O111       Al119   1.960       .  S
C112        O122   1.276       .  A
C112        O113   1.258       .  A
C112        C242   1.474       .  S
O113       Al115   1.856       .  S
O114        C116   1.257       .  A
O114       Al115   1.923       .  S
Al115       O123   1.940       .  S
Al115       O125   1.856       .  S
Al115       O124   1.787       .  S
C116        O129   1.254       .  A
C116       C1330   1.495       .  S
O117        C127   1.273       .  A
O117       Al119   1.956       .  S
O118        C131   1.264       .  A
O118       Al128   1.944       .  S
Al119       O132   1.877       .  S
Al119       O129   1.914       .  S
Al119       O124   1.776       .  S
O120        C127   1.249       .  A
O120       Al128   1.830       .  S
O121        C130   1.255       .  A
O121       Al128   1.897       .  S
O122       Al128   1.953       .  S
O123        C130   1.265       .  A
O124       Al128   1.786       .  S
O125        C126   1.262       .  A
C126        C229   1.465       .  S
C127        C261   1.474       .  S
C130        C389   1.504       .  S
C131        O132   1.255       .  A
C131        C194   1.510       .  S
O133        C148   1.280       .  A
O133       Al141   1.963       .  S
C134        O144   1.275       .  A
C134        O135   1.263       .  A
C134        C293   1.471       .  S
O135       Al137   1.870       .  S
O136        C138   1.255       .  A
O136       Al137   1.917       .  S
Al137       O145   1.930       .  S
Al137       O147   1.867       .  S
Al137       O146   1.787       .  S
C138        O151   1.253       .  A
C138        C197   1.490       .  S
O139        C149   1.272       .  A
O139       Al141   1.956       .  S
O140        C153   1.263       .  A
O140       Al150   1.926       .  S
Al141       O154   1.879       .  S
Al141       O151   1.909       .  S
Al141       O146   1.780       .  S
O142        C149   1.248       .  A
O142       Al150   1.832       .  S
O143        C152   1.254       .  A
O143       Al150   1.896       .  S
O144       Al150   1.947       .  S
O145        C152   1.262       .  A
O146       Al150   1.786       .  S
O147        C148   1.265       .  A
C148        C277   1.468       .  S
C149        C178   1.470       .  S
C152        C341   1.496       .  S
C153        O154   1.253       .  A
C153        C213   1.498       .  S
O155        C170   1.247       .  A
O155       Al163   1.864       .  S
C156        O157   1.277   1_565  A
C156       O1286   1.258       .  A
C156       C1346   1.474       .  S
O157       Al159   1.957       .  S
O158        C160   1.248       .  A
O158       Al159   1.829       .  S
Al159       O167   1.895       .  S
Al159       O169   1.949       .  S
Al159       O168   1.782       .  S
C160        O173   1.275       .  A
C160        C181   1.469       .  S
O161       C1291   1.255       .  A
O161       Al163   1.907   1_565  S
O162        C175   1.258       .  A
O162       Al172   1.846       .  S
Al163       O176   1.958       .  S
Al163       O173   1.967       .  S
Al163       O168   1.770       .  S
O164        C171   1.257       .  A
O164      Al1292   1.924       .  S
O165        C174   1.265   1_565  A
O165       Al172   1.943       .  S
O166       C1276   1.259       .  A
O166      Al1292   1.857       .  S
O167        C174   1.259       .  A
O168       Al172   1.782   1_545  S
O169        C170   1.267       .  A
C170        C322   1.503       .  S
C171       O1281   1.252       .  A
C171        C309   1.492       .  S
Al172      O1284   1.938       .  S
Al172      O1286   1.855       .  S
C174        C354   1.499       .  S
C175        O176   1.277   1_565  A
C175        C245   1.459       .  S
C177        C178   1.408       .  A
C177        C182   1.406       .  A
C177        H184   1.084       .  S
C178        C179   1.410       .  A
C179        C180   1.409       .  A
C179        C186   1.518       .  S
C180        C181   1.409       .  A
C180        H185   1.084       .  S
C181        C182   1.409       .  A
C182        C183   1.517       .  S
C183        F187   1.384       .  S
C183        F188   1.383       .  S
C183        F189   1.383       .  S
C186        F190   1.383       .  S
C186        F191   1.383       .  S
C186        F192   1.384       .  S
C193        C194   1.412       .  A
C193        C198   1.408       .  A
C193        H200   1.083       .  S
C194        C195   1.427       .  A
C195        C196   1.417       .  A
C195        C202   1.516       .  S
C196        C197   1.404       .  A
C196        H201   1.083       .  S
C197        C198   1.411       .  A
C198        C199   1.514       .  S
C199        F203   1.385       .  S
C199        F204   1.384       .  S
C199        F205   1.380       .  S
C202        F206   1.383       .  S
C202        F207   1.377       .  S
C202        F208   1.385       .  S
C209        C210   1.401       .  A
C209        C214   1.408       .  A
C209        H216   1.084       .  S
C210       C1236   1.488   1_545  S
C210        C211   1.421       .  A
C211        C212   1.414       .  A
C211       C1338   1.518   1_545  S
C212        C213   1.407       .  A
C212        H217   1.083       .  S
C213        C214   1.423       .  A
C214        C215   1.517       .  S
C215        F219   1.385       .  S
C215        F220   1.382       .  S
C215        F221   1.384       .  S
C218       C1331   1.517       .  S
C218        F222   1.381       .  S
C218        F223   1.383       .  S
C218        F224   1.385       .  S
C225       C1346   1.404   1_545  A
C225       C1350   1.403       .  A
C225        H232   1.083       .  S
C226       C1276   1.478       .  S
C226        C227   1.423       .  A
C226       C1345   1.403       .  A
C227        C228   1.404       .  A
C227        C234   1.519       .  S
C228        C229   1.396       .  A
C228        H233   1.084       .  S
C229        C230   1.416       .  A
C230       C1345   1.404       .  A
C230       C1351   1.520       .  S
C231       C1350   1.519       .  S
C231        F235   1.385       .  S
C231        F236   1.382       .  S
C231        F237   1.382       .  S
C234        F238   1.382       .  S
C234        F239   1.383       .  S
C234        F240   1.385       .  S
C241        C246   1.405       .  A
C241        C802   1.402       .  A
C241        H248   1.082       .  S
C242        C243   1.420   1_554  A
C242        C801   1.403   1_554  A
C243       C1924   1.404       .  A
C243        C250   1.519   1_556  S
C244        C245   1.397   1_545  A
C244       C1923   1.402       .  A
C244        H249   1.083       .  S
C245       C1366   1.414       .  A
C246       C1365   1.416       .  A
C246        C247   1.519       .  S
C247        F251   1.383       .  S
C247        F253   1.380       .  S
C247       F1372   1.382       .  S
C250        F255   1.382       .  S
C250       F1374   1.384       .  S
C250       F1376   1.385   1_554  S
F252       C1367   1.382       .  S
F254       C1370   1.384       .  S
F256       C1370   1.385   1_556  S
C257        C258   1.414       .  A
C257        C262   1.405       .  A
C257        H264   1.083       .  S
C258        C259   1.408       .  A
C259        C820   1.405       .  A
C259        C826   1.517       .  S
C260        C261   1.408       .  A
C260        C819   1.401   1_554  A
C260        H265   1.083       .  S
C261        C822   1.410   1_554  A
C262        C821   1.407       .  A
C262        C263   1.517       .  S
C263        F267   1.384       .  S
C263        F269   1.383       .  S
C263        F828   1.384       .  S
C266        C819   1.518       .  S
C266        F272   1.384       .  S
C266        F830   1.383       .  S
C266        F831   1.384       .  S
F268        C823   1.384       .  S
F270        C826   1.383       .  S
F271        C826   1.383       .  S
C273        C274   1.402       .  A
C273        C838   1.405       .  A
C273        H280   1.083       .  S
C274        C275   1.411       .  A
C275        C836   1.406       .  A
C275        C282   1.516       .  S
C276        C277   1.398       .  A
C276        C835   1.405   1_554  A
C276        H281   1.083       .  S
C277        C278   1.414       .  A
C278        C833   1.408       .  A
C278        C279   1.517       .  S
C279        F283   1.383       .  S
C279        F284   1.382       .  S
C279        F285   1.382       .  S
C282        F286   1.383       .  S
C282        F287   1.383       .  S
C282        F848   1.384       .  S
F288        C842   1.385       .  S
C289        C290   1.398       .  A
C289        C294   1.403       .  A
C289        H296   1.084       .  S
C290        C291   1.414       .  A
C291        C292   1.403       .  A
C291        C298   1.519       .  S
C292        C293   1.403       .  A
C292        H297   1.083       .  S
C293        C294   1.416       .  A
C294        C295   1.518       .  S
C295        F299   1.385       .  S
C295        F300   1.383       .  S
C295        F301   1.378       .  S
C298        F302   1.382       .  S
C298        F303   1.381       .  S
C298        F304   1.385       .  S
C305        C306   1.408       .  A
C305        C310   1.417       .  A
C305        H312   1.082       .  S
C306        C307   1.432       .  A
C307        C308   1.408       .  A
C307        C314   1.520       .  S
C308        C309   1.398       .  A
C308        H313   1.084       .  S
C309        C310   1.421       .  A
C310        C311   1.517       .  S
C311        F315   1.384       .  S
C311        F316   1.383       .  S
C311        F317   1.380       .  S
C314        F318   1.384       .  S
C314        F319   1.383       .  S
C314        F320   1.385       .  S
C321        C322   1.408       .  A
C321        C326   1.414       .  A
C321        H328   1.082       .  S
C322        C323   1.432       .  A
C323        C324   1.406       .  A
C323        C330   1.521       .  S
C324        C325   1.397       .  A
C324        H329   1.084       .  S
C325        C326   1.420       .  A
C326        C327   1.518       .  S
C327        F331   1.385       .  S
C327        F332   1.383       .  S
C327        F333   1.380       .  S
C330        F334   1.382       .  S
C330        F335   1.383       .  S
C330        F336   1.385       .  S
C337        C338   1.406       .  A
C337        C342   1.410   1_655  A
C337        H344   1.082       .  S
C338        C339   1.428       .  A
C339        C340   1.407   1_655  A
C339        C346   1.524       .  S
C340        C341   1.404       .  A
C340        H345   1.082       .  S
C341        C342   1.424       .  A
C342        C343   1.521       .  S
C343        F347   1.385       .  S
C343        F348   1.382       .  S
C343        F349   1.383       .  S
C346        F350   1.383       .  S
C346        F351   1.383       .  S
C346        F352   1.385       .  S
C353        C354   1.410       .  A
C353        C358   1.412       .  A
C353        H360   1.082       .  S
C354        C355   1.424       .  A
C355        C356   1.406       .  A
C355        C362   1.519   1_545  S
C356        C357   1.403       .  A
C356        H361   1.080   1_545  S
C357        C358   1.420       .  A
C358        C359   1.520       .  S
C359        F363   1.385       .  S
C359        F364   1.383       .  S
C359       F1485   1.383       .  S
C362        F366   1.382       .  S
C362        F367   1.383       .  S
C362        F368   1.385       .  S
F365       C1479   1.383       .  S
C369        C370   1.413       .  A
C369        C934   1.406       .  A
C369        H376   1.082       .  S
C370        C371   1.412       .  A
C371        C932   1.404       .  A
C371        C378   1.518       .  S
C372        C373   1.413       .  A
C372        C931   1.406   1_554  A
C372        H377   1.083       .  S
C373        C374   1.409       .  A
C374        C929   1.406   1_554  A
C374        C375   1.517       .  S
C375        F380   1.384       .  S
C375        F381   1.382       .  S
C375        F939   1.384       .  S
C378        F382   1.380       .  S
C378        F383   1.382       .  S
C378        F944   1.385       .  S
F379        C935   1.385       .  S
F384        C938   1.384       .  S
C385        C386   1.407       .  A
C385        C390   1.413       .  A
C385        H392   1.082       .  S
C386        C387   1.421       .  A
C387        C388   1.411       .  A
C387        C394   1.520       .  S
C388        C389   1.409       .  A
C388        H393   1.082       .  S
C389        C390   1.426       .  A
C390        C391   1.523       .  S
C391        F395   1.385       .  S
C391        F396   1.383       .  S
C391        F397   1.384       .  S
C394        F398   1.383       .  S
C394        F399   1.383       .  S
C394        F400   1.384       .  S
C401        C402   1.404       .  A
C401        C406   1.414       .  A
C401        H408   1.083       .  S
C402        C403   1.420       .  A
C403        C404   1.410       .  A
C403        C410   1.516       .  S
C404        C405   1.403       .  A
C404        H409   1.084       .  S
C405        C406   1.422       .  A
C406        C407   1.517       .  S
C407        F411   1.384       .  S
C407        F412   1.381       .  S
C407        F413   1.382       .  S
C410        F414   1.382       .  S
C410        F415   1.385       .  S
C410        F416   1.384       .  S
C417        C418   1.409       .  A
C417        C422   1.423       .  A
C417       H1544   1.083       .  S
C418       C1148   1.496   1_545  S
C418        C419   1.415       .  A
C419        C420   1.404       .  A
C419        C426   1.520       .  S
C420        C421   1.414       .  A
C420        H425   1.082       .  S
C421        C422   1.426       .  A
C422        C423   1.517       .  S
C423        F428   1.383       .  S
C423        F429   1.382       .  S
C423       F1547   1.385       .  S
H424       C1537   1.083       .  S
C426        F430   1.378       .  S
C426        F431   1.382       .  S
C426        F432   1.385       .  S
F427       C1543   1.384       .  S
C433        C434   1.401       .  A
C433        C998   1.401       .  A
C433        H440   1.084       .  S
C434       C1166   1.459       .  S
C434        C435   1.406       .  A
C435        C996   1.404       .  A
C435        C442   1.516       .  S
C436        C437   1.408       .  A
C436        C995   1.404       .  A
C436        H441   1.083       .  S
C437        C438   1.417       .  A
C438        C993   1.404       .  A
C438        C439   1.518       .  S
C439        F443   1.385       .  S
C439        F444   1.382       .  S
C439        F445   1.382       .  S
C442        F446   1.383       .  S
C442        F448   1.383       .  S
C442       F1567   1.384       .  S
F447       C1562   1.385       .  S
C449        C450   1.396       .  A
C449        C454   1.408       .  A
C449        H456   1.083       .  S
C450       C1571   1.425       .  A
C451        C452   1.399       .  A
C451       C1570   1.424       .  A
C451        C458   1.518       .  S
C452        C453   1.399   1_565  A
C452        H457   1.085       .  S
C453       C1574   1.430   1_545  A
C454       C1573   1.428       .  A
C454        C455   1.517       .  S
C455        F459   1.381       .  S
C455        F460   1.384       .  S
C455        F461   1.385       .  S
C458        F462   1.383   1_565  S
C458        F463   1.373       .  S
C458        F464   1.383       .  S
C465        C466   1.409       .  A
C465        C470   1.415   1_455  A
C465        H472   1.082       .  S
C466        C467   1.426       .  A
C467        C468   1.413   1_455  A
C467        C474   1.522       .  S
C468        C469   1.409       .  A
C468        H473   1.082       .  S
C469        C470   1.427       .  A
C470        C471   1.522       .  S
C471        F475   1.385       .  S
C471        F476   1.383       .  S
C471        F477   1.383       .  S
C474        F478   1.382       .  S
C474        F479   1.384       .  S
C474        F480   1.385   1_455  S
C481        C482   1.413       .  A
C481        C486   1.404       .  A
C481        H488   1.084       .  S
C482        C483   1.410       .  A
C483        C484   1.404       .  A
C483        C490   1.518       .  S
C484        C485   1.413       .  A
C484        H489   1.083       .  S
C485        C486   1.409       .  A
C486        C487   1.517       .  S
C487        F491   1.384       .  S
C487        F492   1.383       .  S
C487        F493   1.382       .  S
C490        F494   1.382       .  S
C490        F495   1.383       .  S
C490        F496   1.385       .  S
C497        C498   1.399       .  A
C497        C502   1.401       .  A
C497        H504   1.083       .  S
C498        C499   1.431       .  A
C499        C500   1.398       .  A
C499        C506   1.527       .  S
C500        C501   1.397       .  A
C500        H505   1.082       .  S
C501        C502   1.424       .  A
C502        C503   1.518       .  S
C503        F507   1.385       .  S
C503        F508   1.384       .  S
C503        F509   1.383       .  S
C506        F510   1.383       .  S
C506        F511   1.383       .  S
C506        F512   1.385       .  S
C513        C514   1.407       .  A
C513        C518   1.396       .  A
C513        H520   1.083       .  S
C514        C515   1.410       .  A
C515       C1076   1.402       .  A
C515        C522   1.518       .  S
C516        C517   1.414       .  A
C516       C1075   1.399   1_554  A
C516        H521   1.082       .  S
C517       C1078   1.414   1_554  A
C518       C1077   1.418       .  A
C518       C1079   1.524       .  S
C519       C1078   1.524       .  S
C519        F524   1.382   1_556  S
C519        F525   1.384   1_556  S
C519       F1083   1.386       .  S
C522        F526   1.382       .  S
C522        F527   1.383       .  S
C522        F528   1.385       .  S
F523       C1079   1.385       .  S
C529        C530   1.413       .  A
C529        C534   1.409       .  A
C529        H536   1.082       .  S
C530        C531   1.426       .  A
C531        C532   1.417       .  A
C531        C538   1.517       .  S
C532        C533   1.403       .  A
C532        H537   1.083       .  S
C533        C534   1.412       .  A
C534        C535   1.518       .  S
C535        F539   1.382       .  S
C535        F540   1.385       .  S
C535        F541   1.383       .  S
C538        F542   1.382       .  S
C538        F543   1.383       .  S
C538        F544   1.385       .  S
C545        C546   1.407       .  A
C545        C550   1.418       .  A
C545        H552   1.082       .  S
C546        C547   1.419       .  A
C547        C548   1.411       .  A
C547        C554   1.516       .  S
C548        C549   1.402       .  A
C548        H553   1.076       .  S
C549        C550   1.423       .  A
C550        C551   1.516       .  S
C551        F555   1.385       .  S
C551        F556   1.383       .  S
C551        F557   1.381       .  S
C554        F558   1.385       .  S
C554        F559   1.382       .  S
C554        F560   1.384       .  S
O561        C576   1.253       .  A
O561       Al569   1.867       .  S
C562        O572   1.266       .  A
C562        O563   1.282       .  A
C562       C1061   1.461       .  S
O563       Al565   1.945       .  S
O564        C566   1.250       .  A
O564       Al565   1.823       .  S
Al565       O573   1.907       .  S
Al565       O575   1.940       .  S
Al565       O574   1.767       .  S
C566        O579   1.274       .  A
C566       C1042   1.477       .  S
O567        C577   1.251       .  A
O567       Al569   1.919       .  S
O568        C581   1.263       .  A
O568       Al578   1.817       .  S
Al569       O582   1.972       .  S
Al569       O579   1.950       .  S
Al569       O574   1.764       .  S
O570        C577   1.254       .  A
O570       Al578   1.933       .  S
O571        C580   1.260       .  A
O571       Al578   1.929       .  S
O572       Al578   1.853       .  S
O573        C580   1.255       .  A
O574       Al578   1.780       .  S
O575        C576   1.264       .  A
C576       C1090   1.502       .  S
C577       C1109   1.496       .  S
C580       C1029   1.499       .  S
C581        O582   1.287       .  A
C581       C1074   1.469       .  S
O583        C598   1.283       .  A
O583       Al591   1.956       .  S
C584        O594   1.281       .  A
C584        O585   1.264       .  A
C584       C1010   1.469       .  S
O585       Al587   1.866       .  S
O586        C588   1.251       .  A
O586       Al587   1.906       .  S
Al587       O595   1.922       .  S
Al587       O597   1.862       .  S
Al587       O596   1.786       .  S
C588        O601   1.255       .  A
C588       C2098   1.493       .  S
O589        C599   1.272       .  A
O589       Al591   1.953       .  S
O590        C603   1.265       .  A
O590       Al600   1.934       .  S
Al591       O604   1.865       .  S
Al591       O601   1.922       .  S
Al591       O596   1.779       .  S
O592        C599   1.248       .  A
O592       Al600   1.821       .  S
O593        C602   1.253       .  A
O593       Al600   1.898       .  S
O594       Al600   1.962       .  S
O595        C602   1.253       .  A
O596       Al600   1.779       .  S
O597        C598   1.269       .  A
C598        C997   1.469       .  S
C599       C1045   1.477       .  S
C602        C946   1.502       .  S
C603        O604   1.253       .  A
C603        C962   1.493       .  S
O605        C620   1.254       .  A
O605       Al613   1.896       .  S
C606       O1736   1.257       .  A
C606        O607   1.269   1_565  A
C606       C2114   1.462       .  S
O607       Al609   1.943       .  S
O608        C610   1.255       .  A
O608       Al609   1.849       .  S
Al609       O617   1.904       .  S
Al609       O619   1.945       .  S
Al609       O618   1.781       .  S
C610        O623   1.276       .  A
C610        C930   1.476       .  S
O611       C1741   1.260   1_545  A
O611       Al613   1.919       .  S
O612        C625   1.256   1_565  A
O612       Al622   1.856       .  S
Al613       O626   1.945       .  S
Al613       O623   1.965       .  S
Al613       O618   1.772       .  S
O614        C621   1.260       .  A
O614      Al1742   1.932       .  S
O615        C624   1.268       .  A
O615       Al622   1.930   1_545  S
O616       C1726   1.260       .  A
O616      Al1742   1.866       .  S
O617        C624   1.263       .  A
O618       Al622   1.775   1_545  S
O619        C620   1.266       .  A
C620       C1106   1.493       .  S
C621       O1731   1.256       .  A
C621       C1093   1.490       .  S
Al622      O1734   1.919       .  S
Al622      O1736   1.866       .  S
C624        C917   1.500       .  S
C625        O626   1.277       .  A
C625       C1013   1.478   1_545  S
O627        C642   1.276       .  A
O627       Al635   1.937       .  S
C628        O638   1.270       .  A
C628        O629   1.260       .  A
C628       C1077   1.480       .  S
O629       Al631   1.854       .  S
O630        C632   1.262       .  A
O630       Al631   1.935       .  S
Al631       O639   1.939       .  S
Al631       O641   1.840       .  S
Al631       O640   1.775       .  S
C632        O645   1.257       .  A
C632        C965   1.491       .  S
O633        C643   1.273       .  A
O633       Al635   1.959       .  S
O634        C647   1.265       .  A
O634       Al644   1.959       .  S
Al635       O648   1.872       .  S
Al635       O645   1.908       .  S
Al635       O640   1.767       .  S
O636        C643   1.253       .  A
O636       Al644   1.837       .  S
O637        C646   1.266       .  A
O637       Al644   1.907       .  S
O638       Al644   1.936       .  S
O639        C646   1.265       .  A
O640       Al644   1.777       .  S
O641        C642   1.254       .  A
C642       C1058   1.479       .  S
C643        C933   1.485       .  S
C646        C898   1.505       .  S
C647        O648   1.254       .  A
C647        C981   1.511       .  S
O649        C664   1.252       .  A
O649       Al657   1.868       .  S
C650        O660   1.261       .  A
C650        O651   1.278       .  A
C650        C834   1.477       .  S
O651       Al653   1.963       .  S
O652        C654   1.248       .  A
O652       Al653   1.827       .  S
Al653       O661   1.892       .  S
Al653       O663   1.947       .  S
Al653       O662   1.781       .  S
C654        O667   1.270       .  A
C654        C818   1.468       .  S
O655        C665   1.253       .  A
O655       Al657   1.907       .  S
O656        C669   1.264       .  A
O656       Al666   1.868       .  S
Al657       O670   1.954       .  S
Al657       O667   1.947       .  S
Al657       O662   1.774       .  S
O658        C665   1.257       .  A
O658       Al666   1.922       .  S
O659        C668   1.260       .  A
O659       Al666   1.938       .  S
O660       Al666   1.867       .  S
O661        C668   1.257       .  A
O662       Al666   1.790       .  S
O663        C664   1.267       .  A
C664        C866   1.503       .  S
C665        C885   1.489       .  S
C668       C1026   1.503       .  S
C669        O670   1.278       .  A
C669        C850   1.464       .  S
O671        C686   1.278       .  A
O671       Al679   1.955       .  S
C672        O682   1.274       .  A
C672        O673   1.260       .  A
C672        C802   1.473       .  S
O673       Al675   1.868       .  S
O674        C676   1.259       .  A
O674       Al675   1.925       .  S
Al675       O683   1.941       .  S
Al675       O685   1.866       .  S
Al675       O684   1.788       .  S
C676        O689   1.256       .  A
C676       C1890   1.492       .  S
O677        C687   1.274       .  A
O677       Al679   1.965       .  S
O678        C691   1.265       .  A
O678       Al688   1.953       .  S
Al679       O692   1.881       .  S
Al679       O689   1.910       .  S
Al679       O684   1.771       .  S
O680        C687   1.248       .  A
O680       Al688   1.823       .  S
O681        C690   1.258       .  A
O681       Al688   1.896       .  S
O682       Al688   1.950       .  S
O683        C690   1.267       .  A
O684       Al688   1.780       .  S
O685        C686   1.262       .  A
C686        C789   1.469       .  S
C687        C821   1.479       .  S
C690        C949   1.499       .  S
C691        O692   1.255       .  A
C691        C754   1.515       .  S
O693        C708   1.284       .  A
O693       Al701   1.967       .  S
C694        O704   1.278       .  A
C694        O695   1.267       .  A
C694        C853   1.472       .  S
O695       Al697   1.875       .  S
O696        C698   1.253       .  A
O696       Al697   1.918       .  S
Al697       O705   1.936       .  S
Al697       O707   1.865       .  S
Al697       O706   1.785       .  S
C698        O711   1.252       .  A
C698        C757   1.498       .  S
O699        C709   1.273       .  A
O699       Al701   1.955       .  S
O700        C713   1.261       .  A
O700       Al710   1.919       .  S
Al701       O714   1.876       .  S
Al701       O711   1.917       .  S
Al701       O706   1.781       .  S
O702        C709   1.250       .  A
O702       Al710   1.839       .  S
O703        C712   1.252       .  A
O703       Al710   1.901       .  S
O704       Al710   1.948       .  S
O705        C712   1.260       .  A
O706       Al710   1.783       .  S
O707        C708   1.267       .  A
C708        C837   1.471       .  S
C709        C738   1.476       .  S
C712        C901   1.500       .  S
C713        O714   1.253       .  A
C713        C773   1.492       .  S
O715        C730   1.252       .  A
O715       Al723   1.868       .  S
C716       O1846   1.261       .  A
C716        O717   1.278   1_565  A
C716       C1906   1.475       .  S
O717       Al719   1.954       .  S
O718        C720   1.250       .  A
O718       Al719   1.837       .  S
Al719       O727   1.894       .  S
Al719       O729   1.936       .  S
Al719       O728   1.782       .  S
C720        O733   1.273       .  A
C720        C741   1.473       .  S
O721       C1851   1.251       .  A
O721       Al723   1.908   1_565  S
O722        C735   1.263       .  A
O722       Al732   1.856       .  S
Al723       O736   1.971       .  S
Al723       O733   1.957       .  S
Al723       O728   1.776       .  S
O724        C731   1.259       .  A
O724      Al1852   1.931       .  S
O725        C734   1.260   1_565  A
O725       Al732   1.938       .  S
O726       C1836   1.259       .  A
O726      Al1852   1.863       .  S
O727        C734   1.256       .  A
O728       Al732   1.790   1_545  S
O729        C730   1.264       .  A
C730        C882   1.499       .  S
C731       O1841   1.252       .  A
C731        C869   1.494       .  S
Al732      O1844   1.925       .  S
Al732      O1846   1.860       .  S
C734        C914   1.497       .  S
C735        O736   1.283   1_565  A
C735        C805   1.467       .  S
C737        C738   1.410       .  A
C737        C742   1.408       .  A
C737        H744   1.084       .  S
C738        C739   1.411       .  A
C739        C740   1.408       .  A
C739        C746   1.517       .  S
C740        C741   1.409       .  A
C740        H745   1.084       .  S
C741        C742   1.410       .  A
C742        C743   1.517       .  S
C743        F747   1.384       .  S
C743        F748   1.383       .  S
C743        F749   1.383       .  S
C746        F750   1.383       .  S
C746        F751   1.383       .  S
C746        F752   1.385       .  S
C753        C754   1.414       .  A
C753        C758   1.410       .  A
C753        H760   1.082       .  S
C754        C755   1.427       .  A
C755        C756   1.420       .  A
C755        C762   1.517       .  S
C756        C757   1.407       .  A
C756        H761   1.083       .  S
C757        C758   1.413       .  A
C758        C759   1.516       .  S
C759        F763   1.385       .  S
C759        F764   1.384       .  S
C759        F765   1.381       .  S
C762        F766   1.383       .  S
C762        F767   1.381       .  S
C762        F768   1.385       .  S
C769        C770   1.401       .  A
C769        C774   1.407       .  A
C769        H776   1.085       .  S
C770       C1796   1.485   1_545  S
C770        C771   1.421       .  A
C771        C772   1.412       .  A
C771       C1898   1.519   1_545  S
C772        C773   1.405       .  A
C772        H777   1.083       .  S
C773        C774   1.420       .  A
C774        C775   1.515       .  S
C775        F779   1.384       .  S
C775        F780   1.383       .  S
C775        F781   1.384       .  S
C778       C1891   1.517       .  S
C778        F782   1.381       .  S
C778        F783   1.383       .  S
C778        F784   1.384       .  S
C785       C1906   1.403   1_545  A
C785       C1910   1.402       .  A
C785        H792   1.083       .  S
C786       C1836   1.485       .  S
C786       C1905   1.405       .  A
C786        C787   1.426       .  A
C787        C788   1.405       .  A
C787        C794   1.520       .  S
C788        C789   1.396       .  A
C788        H793   1.084       .  S
C789        C790   1.416       .  A
C790       C1905   1.406       .  A
C790       C1911   1.520       .  S
C791       C1910   1.521       .  S
C791        F795   1.385       .  S
C791        F796   1.381       .  S
C791        F797   1.382       .  S
C794        F798   1.382       .  S
C794        F799   1.383       .  S
C794        F800   1.385       .  S
C801        C806   1.404       .  A
C801        H808   1.083       .  S
C802        C803   1.415       .  A
C803       C1364   1.405       .  A
C803        C810   1.516       .  S
C804       C1363   1.407       .  A
C804        C805   1.402   1_545  A
C804        H809   1.083       .  S
C805       C1926   1.415       .  A
C806       C1925   1.416       .  A
C806        C807   1.520       .  S
C807        F811   1.385       .  S
C807       F1932   1.382       .  S
C807        F813   1.382       .  S
C810       F1934   1.384       .  S
C810        F815   1.382       .  S
C810       F1936   1.385       .  S
F812       C1927   1.382       .  S
F814       C1930   1.384       .  S
F816       C1930   1.385       .  S
C817        C818   1.411       .  A
C817        C822   1.406       .  A
C817        H824   1.085       .  S
C818        C819   1.407       .  A
C820        C821   1.414       .  A
C820        H825   1.082       .  S
C822        C823   1.517   1_556  S
C823        F827   1.384   1_554  S
C823        F829   1.383       .  S
C826        F832   1.385       .  S
C833        C834   1.404   1_554  A
C833        H840   1.083   1_554  S
C834        C835   1.418       .  A
C835        C842   1.516       .  S
C836        C837   1.405       .  A
C836        H841   1.084       .  S
C837        C838   1.414       .  A
C838        C839   1.517       .  S
C839        F843   1.384       .  S
C839        F844   1.382       .  S
C839        F845   1.382       .  S
C842        F846   1.382       .  S
C842        F847   1.380       .  S
C849        C850   1.397       .  A
C849        C854   1.402       .  A
C849        H856   1.082       .  S
C850        C851   1.413       .  A
C851        C852   1.403       .  A
C851        C858   1.518       .  S
C852        C853   1.405       .  A
C852        H857   1.084       .  S
C853        C854   1.420       .  A
C854        C855   1.519       .  S
C855        F859   1.384       .  S
C855        F860   1.381       .  S
C855        F861   1.381       .  S
C858        F862   1.382       .  S
C858        F863   1.381       .  S
C858        F864   1.385       .  S
C865        C866   1.407       .  A
C865        C870   1.417       .  A
C865        H872   1.083       .  S
C866        C867   1.425       .  A
C867        C868   1.407       .  A
C867        C874   1.515       .  S
C868        C869   1.399       .  A
C868        H873   1.083       .  S
C869        C870   1.423       .  A
C870        C871   1.517       .  S
C871        F875   1.385       .  S
C871        F876   1.383       .  S
C871        F877   1.380       .  S
C874        F878   1.382       .  S
C874        F879   1.383       .  S
C874        F880   1.385       .  S
C881        C882   1.407       .  A
C881        C886   1.416       .  A
C881        H888   1.083       .  S
C882        C883   1.422       .  A
C883        C884   1.406       .  A
C883        C890   1.515       .  S
C884        C885   1.400       .  A
C884        H889   1.085       .  S
C885        C886   1.422       .  A
C886        C887   1.518       .  S
C887        F891   1.384       .  S
C887        F892   1.383       .  S
C887        F893   1.381       .  S
C890        F894   1.383       .  S
C890        F895   1.383       .  S
C890        F896   1.384       .  S
C897        C898   1.407       .  A
C897        C902   1.412   1_655  A
C897        H904   1.082       .  S
C898        C899   1.429       .  A
C899        C900   1.411   1_655  A
C899        C906   1.522       .  S
C900        C901   1.404       .  A
C900        H905   1.082       .  S
C901        C902   1.424       .  A
C902        C903   1.521       .  S
C903        F907   1.385       .  S
C903        F908   1.383       .  S
C903        F909   1.383       .  S
C906        F910   1.383       .  S
C906        F911   1.384       .  S
C906        F912   1.385       .  S
C913        C914   1.408       .  A
C913        C918   1.409       .  A
C913        H920   1.082       .  S
C914        C915   1.421   1_545  A
C915        C916   1.409       .  A
C915        C922   1.522       .  S
C916        C917   1.410   1_565  A
C916        H921   1.082       .  S
C917        C918   1.422       .  A
C918        C919   1.522       .  S
C919        F923   1.385       .  S
C919        F924   1.383       .  S
C919       F2045   1.383       .  S
C922        F926   1.383       .  S
C922        F927   1.383       .  S
C922        F928   1.385       .  S
F925       C2039   1.383       .  S
C929        C930   1.411       .  A
C929        H936   1.083       .  S
C930        C931   1.407       .  A
C931        C938   1.517       .  S
C932        C933   1.412       .  A
C932        H937   1.083       .  S
C933        C934   1.414       .  A
C934        C935   1.520       .  S
C935        F940   1.383       .  S
C935        F941   1.381       .  S
C938        F942   1.383       .  S
C938        F943   1.383       .  S
C945        C946   1.407       .  A
C945        C950   1.409       .  A
C945        H952   1.082       .  S
C946        C947   1.426       .  A
C947        C948   1.411       .  A
C947        C954   1.522       .  S
C948        C949   1.406       .  A
C948        H953   1.082       .  S
C949        C950   1.424       .  A
C950        C951   1.522       .  S
C951        F955   1.385       .  S
C951        F956   1.383       .  S
C951        F957   1.383       .  S
C954        F958   1.383       .  S
C954        F959   1.384       .  S
C954        F960   1.385       .  S
C961        C962   1.405       .  A
C961        C966   1.415       .  A
C961        H968   1.083       .  S
C962        C963   1.421       .  A
C963        C964   1.408       .  A
C963        C970   1.516       .  S
C964        C965   1.401       .  A
C964        H969   1.085       .  S
C965        C966   1.422       .  A
C966        C967   1.517       .  S
C967        F971   1.385       .  S
C967        F972   1.381       .  S
C967        F973   1.382       .  S
C970        F974   1.383       .  S
C970        F975   1.384       .  S
C970        F976   1.384       .  S
C977        C978   1.409       .  A
C977        C982   1.421       .  A
C977       H2104   1.083       .  S
C978       C1708   1.495   1_545  S
C978        C979   1.420       .  A
C979        C980   1.403       .  A
C979        C986   1.518       .  S
C980        C981   1.410       .  A
C980        H985   1.084       .  S
C981        C982   1.425       .  A
C982        C983   1.517       .  S
C983       F2107   1.385       .  S
C983        F988   1.383       .  S
C983        F989   1.383       .  S
H984       C2097   1.083       .  S
C986        F990   1.372       .  S
C986        F991   1.384       .  S
C986        F992   1.384       .  S
F987       C2103   1.384       .  S
C993        C994   1.401   1_554  A
C993       H1000   1.084   1_554  S
C994       C1726   1.462       .  S
C994        C995   1.406   1_556  A
C995       C1002   1.515   1_554  S
C996        C997   1.408       .  A
C996       H1001   1.084       .  S
C997        C998   1.415       .  A
C998        C999   1.519       .  S
C999       F1003   1.384       .  S
C999       F1004   1.383       .  S
C999       F1005   1.382       .  S
C1002      F1006   1.383       .  S
C1002      F2127   1.384   1_556  S
C1002      F1008   1.383       .  S
F1007      C2122   1.385   1_554  S
C1009      C1010   1.398       .  A
C1009      C1014   1.406       .  A
C1009      H1016   1.084       .  S
C1010      C2131   1.424       .  A
C1011      C2130   1.424       .  A
C1011      C1012   1.396       .  A
C1011      C1018   1.519       .  S
C1012      C1013   1.397       .  A
C1012      H1017   1.085       .  S
C1013      C2134   1.426       .  A
C1014      C2133   1.424       .  A
C1014      C1015   1.521       .  S
C1015      F1019   1.382       .  S
C1015      F1020   1.384       .  S
C1015      F1021   1.385       .  S
C1018      F1022   1.382   1_565  S
C1018      F1023   1.372       .  S
C1018      F1024   1.383       .  S
C1025      C1026   1.409       .  A
C1025      C1030   1.408   1_455  A
C1025      H1032   1.081       .  S
C1026      C1027   1.425       .  A
C1027      C1028   1.410   1_455  A
C1027      C1034   1.521       .  S
C1028      C1029   1.409       .  A
C1028      H1033   1.082       .  S
C1029      C1030   1.422       .  A
C1030      C1031   1.522       .  S
C1031      F1035   1.385       .  S
C1031      F1036   1.383       .  S
C1031      F1037   1.383       .  S
C1034      F1038   1.379       .  S
C1034      F1039   1.383       .  S
C1034      F1040   1.385   1_455  S
C1041      C1042   1.414       .  A
C1041      C1046   1.406       .  A
C1041      H1048   1.084       .  S
C1042      C1043   1.409       .  A
C1043      C1044   1.403       .  A
C1043      C1050   1.518       .  S
C1044      C1045   1.413       .  A
C1044      H1049   1.084       .  S
C1045      C1046   1.410       .  A
C1046      C1047   1.519       .  S
C1047      F1051   1.385       .  S
C1047      F1052   1.383       .  S
C1047      F1053   1.383       .  S
C1050      F1054   1.383       .  S
C1050      F1055   1.383       .  S
C1050      F1056   1.385       .  S
C1057      C1058   1.404       .  A
C1057      C1062   1.397       .  A
C1057      H1064   1.082       .  S
C1058      C1059   1.431       .  A
C1059      C1060   1.398       .  A
C1059      C1066   1.526       .  S
C1060      C1061   1.394       .  A
C1060      H1065   1.083       .  S
C1061      C1062   1.416       .  A
C1062      C1063   1.522       .  S
C1063      F1067   1.385       .  S
C1063      F1068   1.383       .  S
C1063      F1069   1.383       .  S
C1066      F1070   1.384       .  S
C1066      F1071   1.383       .  S
C1066      F1072   1.385       .  S
C1073      C1074   1.410       .  A
C1073      C1078   1.391       .  A
C1073      H1080   1.083       .  S
C1074      C1075   1.407       .  A
C1075      C1082   1.517       .  S
C1076      C1077   1.414       .  A
C1076      H1081   1.082       .  S
C1079      F1084   1.382       .  S
C1079      F1085   1.384       .  S
C1082      F1086   1.382       .  S
C1082      F1087   1.382       .  S
C1082      F1088   1.385       .  S
C1089      C1090   1.411       .  A
C1089      C1094   1.409       .  A
C1089      H1096   1.081       .  S
C1090      C1091   1.424       .  A
C1091      C1092   1.418       .  A
C1091      C1098   1.518       .  S
C1092      C1093   1.406       .  A
C1092      H1097   1.083       .  S
C1093      C1094   1.411       .  A
C1094      C1095   1.516       .  S
C1095      F1099   1.382       .  S
C1095      F1100   1.385       .  S
C1095      F1101   1.383       .  S
C1098      F1102   1.382       .  S
C1098      F1103   1.384       .  S
C1098      F1104   1.384       .  S
C1105      C1106   1.402       .  A
C1105      C1110   1.408       .  A
C1105      H1112   1.082       .  S
C1106      C1107   1.419       .  A
C1107      C1108   1.418       .  A
C1107      C1114   1.514       .  S
C1108      C1109   1.406       .  A
C1108      H1113   1.083       .  S
C1109      C1110   1.421       .  A
C1110      C1111   1.517       .  S
C1111      F1115   1.384       .  S
C1111      F1116   1.381       .  S
C1111      F1117   1.381       .  S
C1114      F1118   1.384       .  S
C1114      F1119   1.382       .  S
C1114      F1120   1.385       .  S
O1121      C1136   1.253       .  A
O1121     Al1129   1.863       .  S
C1122      O1132   1.266       .  A
C1122      O1123   1.283       .  A
C1122      C1621   1.464       .  S
O1123     Al1125   1.952       .  S
O1124      C1126   1.249       .  A
O1124     Al1125   1.828       .  S
Al1125     O1133   1.918       .  S
Al1125     O1135   1.950       .  S
Al1125     O1134   1.771       .  S
C1126      O1139   1.272       .  A
C1126      C1602   1.478       .  S
O1127      C1137   1.251       .  A
O1127     Al1129   1.917       .  S
O1128      C1141   1.264       .  A
O1128     Al1138   1.825       .  S
Al1129     O1142   1.972       .  S
Al1129     O1139   1.949       .  S
Al1129     O1134   1.767       .  S
O1130      C1137   1.257       .  A
O1130     Al1138   1.947       .  S
O1131      C1140   1.260       .  A
O1131     Al1138   1.931       .  S
O1132     Al1138   1.851       .  S
O1133      C1140   1.257       .  A
O1134     Al1138   1.780       .  S
O1135      C1136   1.267       .  A
C1136      C1650   1.507       .  S
C1137      C1669   1.498       .  S
C1140      C1589   1.504       .  S
C1141      O1142   1.286       .  A
C1141      C1634   1.471       .  S
O1143      C1158   1.284       .  A
O1143     Al1151   1.959       .  S
C1144      O1154   1.282       .  A
C1144      O1145   1.266       .  A
C1144      C1570   1.474       .  S
O1145     Al1147   1.874       .  S
O1146      C1148   1.251   1_545  A
O1146     Al1147   1.906   1_545  S
Al1147     O1155   1.940       .  S
Al1147     O1157   1.858       .  S
Al1147     O1156   1.786       .  S
C1148      O1161   1.255       .  A
O1149      C1159   1.275       .  A
O1149     Al1151   1.961       .  S
O1150      C1163   1.265       .  A
O1150     Al1160   1.940       .  S
Al1151     O1164   1.861       .  S
Al1151     O1161   1.925       .  S
Al1151     O1156   1.777       .  S
O1152      C1159   1.249       .  A
O1152     Al1160   1.828       .  S
O1153      C1162   1.254       .  A
O1153     Al1160   1.902       .  S
O1154     Al1160   1.964       .  S
O1155      C1162   1.257       .  A
O1156     Al1160   1.777       .  S
O1157      C1158   1.270       .  A
C1158      C1557   1.477       .  S
C1159      C1605   1.481       .  S
C1162      C1506   1.507       .  S
C1163      O1164   1.251       .  A
C1163      C1522   1.495       .  S
O1165      C1180   1.255       .  A
O1165     Al1173   1.891       .  S
C1166      O1167   1.270       .  A
O1167     Al1169   1.943       .  S
O1168      C1170   1.252       .  A
O1168     Al1169   1.845       .  S
Al1169     O1177   1.905       .  S
Al1169     O1179   1.953       .  S
Al1169     O1178   1.780       .  S
C1170      O1183   1.276       .  A
C1170      C1490   1.483       .  S
O1171     Al1173   1.915       .  S
O1172      C1185   1.259       .  A
O1172     Al1182   1.866       .  S
Al1173     O1186   1.961       .  S
Al1173     O1183   1.976       .  S
Al1173     O1178   1.771       .  S
O1174      C1181   1.257       .  A
O1175      C1184   1.267       .  A
O1175     Al1182   1.931       .  S
O1177      C1184   1.262       .  A
O1178     Al1182   1.777       .  S
O1179      C1180   1.269       .  A
C1180      C1666   1.496       .  S
C1181      C1653   1.490       .  S
C1184      C1477   1.491       .  S
C1185      O1186   1.279       .  A
C1185      C1573   1.491       .  S
O1187      C1202   1.278       .  A
O1187     Al1195   1.949       .  S
C1188      O1198   1.270       .  A
C1188      O1189   1.260       .  A
C1188      C1637   1.479       .  S
O1189     Al1191   1.853       .  S
O1190      C1192   1.263       .  A
O1190     Al1191   1.940       .  S
Al1191     O1199   1.941       .  S
Al1191     O1201   1.838       .  S
Al1191     O1200   1.777       .  S
C1192      O1205   1.256       .  A
C1192      C1525   1.494       .  S
O1193      C1203   1.274       .  A
O1193     Al1195   1.965       .  S
O1194      C1207   1.266       .  A
O1194     Al1204   1.958       .  S
Al1195     O1208   1.872       .  S
Al1195     O1205   1.909       .  S
Al1195     O1200   1.766       .  S
O1196      C1203   1.253       .  A
O1196     Al1204   1.840       .  S
O1197      C1206   1.266       .  A
O1197     Al1204   1.912       .  S
O1198     Al1204   1.935       .  S
O1199      C1206   1.266       .  A
O1200     Al1204   1.776       .  S
O1201      C1202   1.253       .  A
C1202      C1618   1.482       .  S
C1203      C1493   1.492       .  S
C1206      C1458   1.504       .  S
C1207      O1208   1.254       .  A
C1207      C1541   1.512       .  S
O1209      C1224   1.253       .  A
O1209     Al1217   1.873       .  S
C1210      O1220   1.260       .  A
C1210      O1211   1.277       .  A
C1210      C1394   1.479       .  S
O1211     Al1213   1.964       .  S
O1212      C1214   1.249       .  A
O1212     Al1213   1.832       .  S
Al1213     O1221   1.903       .  S
Al1213     O1223   1.950       .  S
Al1213     O1222   1.783       .  S
C1214      O1227   1.270       .  A
C1214      C1378   1.468       .  S
O1215      C1225   1.255       .  A
O1215     Al1217   1.911       .  S
O1216      C1229   1.262       .  A
O1216     Al1226   1.869       .  S
Al1217     O1230   1.953       .  S
Al1217     O1227   1.949       .  S
Al1217     O1222   1.778       .  S
O1218      C1225   1.260       .  A
O1218     Al1226   1.925       .  S
O1219      C1228   1.261       .  A
O1219     Al1226   1.936       .  S
O1220     Al1226   1.870       .  S
O1221      C1228   1.259       .  A
O1222     Al1226   1.785       .  S
O1223      C1224   1.268       .  A
C1224      C1426   1.503       .  S
C1225      C1445   1.492       .  S
C1228      C1586   1.507       .  S
C1229      O1230   1.276       .  A
C1229      C1410   1.465       .  S
O1231      C1246   1.275       .  A
O1231     Al1239   1.947       .  S
C1232      O1242   1.274       .  A
C1232      O1233   1.259       .  A
C1232      C1362   1.470       .  S
O1233     Al1235   1.865       .  S
O1234      C1236   1.260       .  A
O1234     Al1235   1.922       .  S
Al1235     O1243   1.940       .  S
Al1235     O1245   1.863       .  S
Al1235     O1244   1.786       .  S
C1236      O1249   1.256       .  A
O1237      C1247   1.273       .  A
O1237     Al1239   1.963       .  S
O1238      C1251   1.265       .  A
O1238     Al1248   1.953       .  S
Al1239     O1252   1.872       .  S
Al1239     O1249   1.908       .  S
Al1239     O1244   1.775       .  S
O1240      C1247   1.251       .  A
O1240     Al1248   1.843       .  S
O1241      C1250   1.260       .  A
O1241     Al1248   1.906       .  S
O1242     Al1248   1.949       .  S
O1243      C1250   1.266       .  A
O1244     Al1248   1.784       .  S
O1245      C1246   1.261       .  A
C1246      C1349   1.462       .  S
C1247      C1381   1.474       .  S
C1250      C1509   1.509       .  S
C1251      O1252   1.253       .  A
C1251      C1314   1.509       .  S
O1253      C1268   1.280       .  A
O1253     Al1261   1.963       .  S
C1254      O1264   1.275       .  A
C1254      O1255   1.261       .  A
C1254      C1413   1.470       .  S
O1255     Al1257   1.868       .  S
O1256      C1258   1.256       .  A
O1256     Al1257   1.918       .  S
Al1257     O1265   1.934       .  S
Al1257     O1267   1.862       .  S
Al1257     O1266   1.785       .  S
C1258      O1271   1.254       .  A
C1258      C1317   1.492       .  S
O1259      C1269   1.271       .  A
O1259     Al1261   1.954       .  S
O1260      C1273   1.267       .  A
O1260     Al1270   1.943       .  S
Al1261     O1274   1.877       .  S
Al1261     O1271   1.911       .  S
Al1261     O1266   1.784       .  S
O1262      C1269   1.248       .  A
O1262     Al1270   1.827       .  S
O1263      C1272   1.258       .  A
O1263     Al1270   1.906       .  S
O1264     Al1270   1.950       .  S
O1265      C1272   1.263       .  A
O1266     Al1270   1.785       .  S
O1267      C1268   1.264       .  A
C1268      C1397   1.466       .  S
C1269      C1298   1.467       .  S
C1272      C1461   1.497       .  S
C1273      O1274   1.253       .  A
C1273      C1333   1.507       .  S
O1275      C1290   1.251       .  A
O1275     Al1283   1.863       .  S
C1276      O1277   1.279       .  A
O1277     Al1279   1.962       .  S
O1278      C1280   1.247       .  A
O1278     Al1279   1.821       .  S
Al1279     O1287   1.892       .  S
Al1279     O1289   1.947       .  S
Al1279     O1288   1.782       .  S
C1280      O1293   1.274       .  A
C1280      C1301   1.468       .  S
O1281     Al1283   1.907       .  S
O1282      C1295   1.261       .  A
O1282     Al1292   1.849       .  S
Al1283     O1296   1.976       .  S
Al1283     O1293   1.962       .  S
Al1283     O1288   1.774       .  S
O1284      C1291   1.261       .  A
O1285      C1294   1.261       .  A
O1285     Al1292   1.934       .  S
O1287      C1294   1.255       .  A
O1288     Al1292   1.786       .  S
O1289      C1290   1.266       .  A
C1290      C1442   1.503       .  S
C1291      C1429   1.495       .  S
C1294      C1474   1.492       .  S
C1295      O1296   1.283       .  A
C1295      C1365   1.466       .  S
C1297      C1298   1.408       .  A
C1297      C1302   1.406       .  A
C1297      H1304   1.084       .  S
C1298      C1299   1.409       .  A
C1299      C1300   1.405       .  A
C1299      C1306   1.517       .  S
C1300      C1301   1.409       .  A
C1300      H1305   1.084       .  S
C1301      C1302   1.409       .  A
C1302      C1303   1.516       .  S
C1303      F1307   1.385       .  S
C1303      F1308   1.383       .  S
C1303      F1309   1.383       .  S
C1306      F1310   1.383       .  S
C1306      F1311   1.383       .  S
C1306      F1312   1.385       .  S
C1313      C1314   1.413       .  A
C1313      C1318   1.406       .  A
C1313      H1320   1.082       .  S
C1314      C1315   1.423       .  A
C1315      C1316   1.419       .  A
C1315      C1322   1.516       .  S
C1316      C1317   1.408       .  A
C1316      H1321   1.083       .  S
C1317      C1318   1.413       .  A
C1318      C1319   1.517       .  S
C1319      F1323   1.385       .  S
C1319      F1324   1.384       .  S
C1319      F1325   1.381       .  S
C1322      F1326   1.384       .  S
C1322      F1327   1.382       .  S
C1322      F1328   1.385       .  S
C1329      C1330   1.401       .  A
C1329      C1334   1.411       .  A
C1329      H1336   1.084       .  S
C1330      C1331   1.421       .  A
C1331      C1332   1.417       .  A
C1332      C1333   1.409       .  A
C1332      H1337   1.082       .  S
C1333      C1334   1.427       .  A
C1334      C1335   1.518       .  S
C1335      F1339   1.385       .  S
C1335      F1340   1.383       .  S
C1335      F1341   1.384       .  S
C1338      F1342   1.380       .  S
C1338      F1343   1.383       .  S
C1338      F1344   1.385       .  S
C1345      H1352   1.083       .  S
C1346      C1347   1.423       .  A
C1347      C1348   1.403       .  A
C1347      C1354   1.521       .  S
C1348      C1349   1.396       .  A
C1348      H1353   1.084       .  S
C1349      C1350   1.414   1_565  A
C1351      F1355   1.385       .  S
C1351      F1356   1.382       .  S
C1351      F1357   1.382       .  S
C1354      F1358   1.382       .  S
C1354      F1359   1.381       .  S
C1354      F1360   1.385       .  S
C1361      C1922   1.404       .  A
C1361      C1366   1.403       .  A
C1361      H1368   1.082       .  S
C1362      C1921   1.401   1_554  A
C1362      C1363   1.416   1_564  A
C1363      C1370   1.518   1_556  S
C1364      C1365   1.401       .  A
C1364      H1369   1.084       .  S
C1366      C1367   1.520       .  S
C1367      F1371   1.385       .  S
C1367      F1373   1.383       .  S
C1370      F1375   1.382       .  S
C1377      C1378   1.410       .  A
C1377      C1382   1.406       .  A
C1377      H1384   1.085       .  S
C1378      C1379   1.407       .  A
C1379      C1940   1.401       .  A
C1379      C1946   1.518       .  S
C1380      C1939   1.409   1_554  A
C1380      C1381   1.408       .  A
C1380      H1385   1.083       .  S
C1381      C1942   1.409       .  A
C1382      C1941   1.409       .  A
C1382      C1383   1.516       .  S
C1383      F1387   1.384       .  S
C1383      F1948   1.384       .  S
C1383      F1389   1.382       .  S
C1386      C1939   1.517       .  S
C1386      F1950   1.382       .  S
C1386      F1951   1.383       .  S
C1386      F1392   1.385   1_556  S
F1388      C1943   1.383       .  S
F1390      C1946   1.383       .  S
F1391      C1946   1.384       .  S
C1393      C1394   1.404       .  A
C1393      C1958   1.407       .  A
C1393      H1400   1.083       .  S
C1394      C1395   1.419       .  A
C1395      C1956   1.408       .  A
C1395      C1402   1.517       .  S
C1396      C1955   1.404   1_554  A
C1396      C1397   1.398       .  A
C1396      H1401   1.084       .  S
C1397      C1398   1.415       .  A
C1398      C1953   1.408       .  A
C1398      C1399   1.518       .  S
C1399      F1403   1.383       .  S
C1399      F1404   1.383       .  S
C1399      F1405   1.382       .  S
C1402      F1406   1.382       .  S
C1402      F1407   1.381       .  S
C1402      F1968   1.385       .  S
F1408      C1962   1.385       .  S
C1409      C1410   1.400       .  A
C1409      C1414   1.406       .  A
C1409      H1416   1.083       .  S
C1410      C1411   1.414       .  A
C1411      C1412   1.403       .  A
C1411      C1418   1.517       .  S
C1412      C1413   1.401       .  A
C1412      H1417   1.083       .  S
C1413      C1414   1.417       .  A
C1414      C1415   1.519       .  S
C1415      F1419   1.385       .  S
C1415      F1420   1.384       .  S
C1415      F1421   1.380       .  S
C1418      F1422   1.382       .  S
C1418      F1423   1.379       .  S
C1418      F1424   1.384       .  S
C1425      C1426   1.405       .  A
C1425      C1430   1.416       .  A
C1425      H1432   1.083       .  S
C1426      C1427   1.424       .  A
C1427      C1428   1.410       .  A
C1427      C1434   1.516       .  S
C1428      C1429   1.401       .  A
C1428      H1433   1.084       .  S
C1429      C1430   1.424       .  A
C1430      C1431   1.516       .  S
C1431      F1435   1.385       .  S
C1431      F1436   1.383       .  S
C1431      F1437   1.379       .  S
C1434      F1438   1.384       .  S
C1434      F1439   1.382       .  S
C1434      F1440   1.385       .  S
C1441      C1442   1.408       .  A
C1441      C1446   1.418       .  A
C1441      H1448   1.083       .  S
C1442      C1443   1.425       .  A
C1443      C1444   1.407       .  A
C1443      C1450   1.517       .  S
C1444      C1445   1.400       .  A
C1444      H1449   1.085       .  S
C1445      C1446   1.422       .  A
C1446      C1447   1.518       .  S
C1447      F1451   1.384       .  S
C1447      F1452   1.383       .  S
C1447      F1453   1.380       .  S
C1450      F1454   1.384       .  S
C1450      F1455   1.383       .  S
C1450      F1456   1.384       .  S
C1457      C1458   1.407       .  A
C1457      C1462   1.414   1_655  A
C1457      H1464   1.082       .  S
C1458      C1459   1.428       .  A
C1459      C1460   1.411   1_655  A
C1459      C1466   1.522       .  S
C1460      C1461   1.403       .  A
C1460      H1465   1.083       .  S
C1461      C1462   1.423       .  A
C1462      C1463   1.520       .  S
C1463      F1467   1.385       .  S
C1463      F1468   1.383       .  S
C1463      F1469   1.382       .  S
C1466      F1470   1.383       .  S
C1466      F1471   1.382       .  S
C1466      F1472   1.385       .  S
C1473      C1474   1.408       .  A
C1473      C1478   1.411       .  A
C1473      H1480   1.083       .  S
C1474      C1475   1.421       .  A
C1475      C1476   1.404       .  A
C1475      C1482   1.521       .  S
C1476      C1477   1.403       .  A
C1476      H1481   1.078       .  S
C1477      C1478   1.421       .  A
C1478      C1479   1.520       .  S
C1479      F1483   1.385       .  S
C1479      F1484   1.383       .  S
C1482      F1486   1.383       .  S
C1482      F1487   1.382       .  S
C1482      F1488   1.385       .  S
C1489      C1490   1.414       .  A
C1489      C2054   1.407       .  A
C1489      H1496   1.083       .  S
C1490      C1491   1.408       .  A
C1491      C2052   1.408       .  A
C1491      C1498   1.517       .  S
C1492      C2051   1.406   1_554  A
C1492      C1493   1.414       .  A
C1492      H1497   1.082   1_554  S
C1493      C1494   1.415       .  A
C1494      C2049   1.407       .  A
C1494      C1495   1.519       .  S
C1495      F2059   1.385       .  S
C1495      F1500   1.383       .  S
C1495      F1501   1.381       .  S
C1498      F1502   1.382       .  S
C1498      F1503   1.383       .  S
C1498      F2064   1.385       .  S
F1499      C2055   1.384       .  S
F1504      C2058   1.385       .  S
C1505      C1506   1.408       .  A
C1505      C1510   1.411       .  A
C1505      H1512   1.082       .  S
C1506      C1507   1.424       .  A
C1507      C1508   1.414       .  A
C1507      C1514   1.521   1_565  S
C1508      C1509   1.411       .  A
C1508      H1513   1.082       .  S
C1509      C1510   1.426       .  A
C1510      C1511   1.522       .  S
C1511      F1515   1.385       .  S
C1511      F1516   1.383       .  S
C1511      F1517   1.383       .  S
C1514      F1518   1.384       .  S
C1514      F1519   1.383       .  S
C1514      F1520   1.385       .  S
C1521      C1522   1.405       .  A
C1521      C1526   1.417       .  A
C1521      H1528   1.083       .  S
C1522      C1523   1.421       .  A
C1523      C1524   1.408       .  A
C1523      C1530   1.516       .  S
C1524      C1525   1.402       .  A
C1524      H1529   1.085       .  S
C1525      C1526   1.423       .  A
C1526      C1527   1.516       .  S
C1527      F1531   1.385       .  S
C1527      F1532   1.382       .  S
C1527      F1533   1.383       .  S
C1530      F1534   1.382       .  S
C1530      F1535   1.384       .  S
C1530      F1536   1.384       .  S
C1537      C1538   1.409       .  A
C1537      C1542   1.422       .  A
C1538      C1539   1.419       .  A
C1539      C1540   1.404       .  A
C1539      C1546   1.517       .  S
C1540      C1541   1.410       .  A
C1540      H1545   1.084       .  S
C1541      C1542   1.426       .  A
C1542      C1543   1.517       .  S
C1543      F1548   1.383       .  S
C1543      F1549   1.384       .  S
C1546      F1550   1.373       .  S
C1546      F1551   1.384       .  S
C1546      F1552   1.384       .  S
C1553      C1554   1.402       .  A
C1553      C2118   1.402       .  A
C1553      H1560   1.084   1_565  S
C1554      C1555   1.404       .  A
C1555      C2116   1.401       .  A
C1555      C1562   1.516       .  S
C1556      C2115   1.403       .  A
C1556      C1557   1.411       .  A
C1556      H1561   1.084       .  S
C1557      C1558   1.417       .  A
C1558      C2113   1.403       .  A
C1558      C1559   1.519       .  S
C1559      F1563   1.384       .  S
C1559      F1564   1.383       .  S
C1559      F1565   1.381   1_565  S
C1562      F1566   1.383   1_565  S
C1562      F1568   1.383       .  S
C1569      C1570   1.397       .  A
C1569      C1574   1.408       .  A
C1569      H1576   1.083       .  S
C1571      C1572   1.401       .  A
C1571      C1578   1.518       .  S
C1572      C1573   1.399       .  A
C1572      H1577   1.085       .  S
C1574      C1575   1.521       .  S
C1575      F1579   1.383       .  S
C1575      F1580   1.383   1_565  S
C1575      F1581   1.385       .  S
C1578      F1582   1.382       .  S
C1578      F1583   1.373       .  S
C1578      F1584   1.384       .  S
C1585      C1586   1.411       .  A
C1585      C1590   1.414   1_455  A
C1585      H1592   1.082       .  S
C1586      C1587   1.425       .  A
C1587      C1588   1.410   1_455  A
C1587      C1594   1.521       .  S
C1588      C1589   1.408       .  A
C1588      H1593   1.082       .  S
C1589      C1590   1.423       .  A
C1590      C1591   1.520       .  S
C1591      F1595   1.385       .  S
C1591      F1596   1.383       .  S
C1591      F1597   1.384       .  S
C1594      F1598   1.380       .  S
C1594      F1599   1.384       .  S
C1594      F1600   1.385   1_455  S
C1601      C1602   1.412       .  A
C1601      C1606   1.407       .  A
C1601      H1608   1.084       .  S
C1602      C1603   1.409       .  A
C1603      C1604   1.406       .  A
C1603      C1610   1.518       .  S
C1604      C1605   1.414       .  A
C1604      H1609   1.084       .  S
C1605      C1606   1.412       .  A
C1606      C1607   1.518       .  S
C1607      F1611   1.385       .  S
C1607      F1612   1.382       .  S
C1607      F1613   1.382       .  S
C1610      F1614   1.383       .  S
C1610      F1615   1.384       .  S
C1610      F1616   1.384       .  S
C1617      C1618   1.403       .  A
C1617      C1622   1.399       .  A
C1617      H1624   1.082       .  S
C1618      C1619   1.433       .  A
C1619      C1620   1.399       .  A
C1619      C1626   1.526       .  S
C1620      C1621   1.393       .  A
C1620      H1625   1.083       .  S
C1621      C1622   1.417       .  A
C1622      C1623   1.521       .  S
C1623      F1627   1.385       .  S
C1623      F1628   1.383       .  S
C1623      F1629   1.383       .  S
C1626      F1630   1.383       .  S
C1626      F1631   1.384       .  S
C1626      F1632   1.385       .  S
C1633      C1634   1.410       .  A
C1633      C1638   1.393       .  A
C1633      H1640   1.082       .  S
C1634      C1635   1.408       .  A
C1635      C2196   1.399       .  A
C1635      C1642   1.517       .  S
C1636      C2195   1.403   1_554  A
C1636      C1637   1.415       .  A
C1636      H1641   1.082       .  S
C1637      C2198   1.417   1_554  A
C1638      C2197   1.415       .  A
C1638      C2199   1.524       .  S
C1639      C2198   1.524       .  S
C1639      F2203   1.385       .  S
C1639      F1644   1.382   1_556  S
C1639      F1645   1.383   1_556  S
C1642      F1646   1.382       .  S
C1642      F1647   1.382       .  S
C1642      F1648   1.385       .  S
F1643      C2199   1.385       .  S
C1649      C1650   1.413       .  A
C1649      C1654   1.409       .  A
C1649      H1656   1.081       .  S
C1650      C1651   1.424       .  A
C1651      C1652   1.418       .  A
C1651      C1658   1.516       .  S
C1652      C1653   1.405       .  A
C1652      H1657   1.083       .  S
C1653      C1654   1.412       .  A
C1654      C1655   1.518       .  S
C1655      F1659   1.382       .  S
C1655      F1660   1.385       .  S
C1655      F1661   1.383       .  S
C1658      F1662   1.383       .  S
C1658      F1663   1.383       .  S
C1658      F1664   1.385       .  S
C1665      C1666   1.403       .  A
C1665      C1670   1.409       .  A
C1665      H1672   1.083       .  S
C1666      C1667   1.421       .  A
C1667      C1668   1.419       .  A
C1667      C1674   1.517       .  S
C1668      C1669   1.406       .  A
C1668      H1673   1.082       .  S
C1669      C1670   1.420       .  A
C1670      C1671   1.514       .  S
C1671      F1675   1.385       .  S
C1671      F1676   1.382       .  S
C1671      F1677   1.380       .  S
C1674      F1678   1.384       .  S
C1674      F1679   1.381       .  S
C1674      F1680   1.385       .  S
O1681      C1696   1.255       .  A
O1681     Al1689   1.879       .  S
C1682      O1692   1.261       .  A
C1682      O1683   1.277       .  A
C1682      C2181   1.475       .  S
O1683     Al1685   1.937       .  S
O1684      C1686   1.250       .  A
O1684     Al1685   1.824       .  S
Al1685     O1693   1.907       .  S
Al1685     O1695   1.934       .  S
Al1685     O1694   1.774       .  S
C1686      O1699   1.274       .  A
C1686      C2162   1.480       .  S
O1687      C1697   1.255       .  A
O1687     Al1689   1.919       .  S
O1688      C1701   1.262       .  A
O1688     Al1698   1.829       .  S
Al1689     O1702   1.964       .  S
Al1689     O1699   1.958       .  S
Al1689     O1694   1.775       .  S
O1690      C1697   1.258       .  A
O1690     Al1698   1.938       .  S
O1691      C1700   1.265       .  A
O1691     Al1698   1.945       .  S
O1692     Al1698   1.860       .  S
O1693      C1700   1.257       .  A
O1694     Al1698   1.780       .  S
O1695      C1696   1.262       .  A
C1696      C2210   1.504       .  S
C1697      C2229   1.497       .  S
C1700      C2149   1.509       .  S
C1701      O1702   1.282       .  A
C1701      C2194   1.473       .  S
O1703      C1718   1.283       .  A
O1703     Al1711   1.961       .  S
C1704      O1714   1.279       .  A
C1704      O1705   1.262       .  A
C1704      C2130   1.469       .  S
O1705     Al1707   1.862       .  S
O1706      C1708   1.252   1_545  A
O1706     Al1707   1.913   1_545  S
Al1707     O1715   1.927       .  S
Al1707     O1717   1.848       .  S
Al1707     O1716   1.787       .  S
C1708      O1721   1.255       .  A
O1709      C1719   1.274       .  A
O1709     Al1711   1.959       .  S
O1710      C1723   1.263       .  A
O1710     Al1720   1.930       .  S
Al1711     O1724   1.873       .  S
Al1711     O1721   1.923       .  S
Al1711     O1716   1.779       .  S
O1712      C1719   1.248       .  A
O1712     Al1720   1.821       .  S
O1713      C1722   1.254       .  A
O1713     Al1720   1.896       .  S
O1714     Al1720   1.960       .  S
O1715      C1722   1.256       .  A
O1716     Al1720   1.782       .  S
O1717      C1718   1.267       .  A
C1718      C2117   1.471       .  S
C1719      C2165   1.476       .  S
C1722      C2066   1.500       .  S
C1723      O1724   1.253       .  A
C1723      C2082   1.496       .  S
O1725      C1740   1.253       .  A
O1725     Al1733   1.873       .  S
C1726      O1727   1.274       .  A
O1727     Al1729   1.949       .  S
O1728      C1730   1.252       .  A
O1728     Al1729   1.843       .  S
Al1729     O1737   1.914       .  S
Al1729     O1739   1.952       .  S
Al1729     O1738   1.778       .  S
C1730      O1743   1.272       .  A
C1730      C2050   1.491       .  S
O1731     Al1733   1.913       .  S
O1732      C1745   1.261       .  A
O1732     Al1742   1.860       .  S
Al1733     O1746   1.950       .  S
Al1733     O1743   1.956       .  S
Al1733     O1738   1.772       .  S
O1734      C1741   1.259       .  A
O1735      C1744   1.266       .  A
O1735     Al1742   1.942       .  S
O1737      C1744   1.261       .  A
O1738     Al1742   1.781       .  S
O1739      C1740   1.268       .  A
C1740      C2226   1.500       .  S
C1741      C2213   1.488       .  S
C1744      C2037   1.510       .  S
C1745      O1746   1.280       .  A
C1745      C2133   1.477       .  S
O1747      C1762   1.279       .  A
O1747     Al1755   1.954       .  S
C1748      O1758   1.271       .  A
C1748      O1749   1.259       .  A
C1748      C2197   1.472       .  S
O1749     Al1751   1.841       .  S
O1750      C1752   1.263       .  A
O1750     Al1751   1.939       .  S
Al1751     O1759   1.934       .  S
Al1751     O1761   1.835       .  S
Al1751     O1760   1.774       .  S
C1752      O1765   1.259       .  A
C1752      C2085   1.492       .  S
O1753      C1763   1.276       .  A
O1753     Al1755   1.971       .  S
O1754      C1767   1.268       .  A
O1754     Al1764   1.967       .  S
Al1755     O1768   1.872       .  S
Al1755     O1765   1.914       .  S
Al1755     O1760   1.763       .  S
O1756      C1763   1.252       .  A
O1756     Al1764   1.843       .  S
O1757      C1766   1.267       .  A
O1757     Al1764   1.910       .  S
O1758     Al1764   1.935       .  S
O1759      C1766   1.263       .  A
O1760     Al1764   1.774       .  S
O1761      C1762   1.252       .  A
C1762      C2178   1.481       .  S
C1763      C2053   1.485       .  S
C1766      C2018   1.505       .  S
C1767      O1768   1.254       .  A
C1767      C2101   1.512       .  S
O1769      C1784   1.250       .  A
O1769     Al1777   1.858       .  S
C1770      O1780   1.263       .  A
C1770      O1771   1.280       .  A
C1770      C1954   1.475       .  S
O1771     Al1773   1.963       .  S
O1772      C1774   1.249       .  A
O1772     Al1773   1.839       .  S
Al1773     O1781   1.905       .  S
Al1773     O1783   1.947       .  S
Al1773     O1782   1.785       .  S
C1774      O1787   1.272       .  A
C1774      C1938   1.479       .  S
O1775      C1785   1.248       .  A
O1775     Al1777   1.896       .  S
O1776      C1789   1.267       .  A
O1776     Al1786   1.868       .  S
Al1777     O1790   1.974       .  S
Al1777     O1787   1.955       .  S
Al1777     O1782   1.775       .  S
O1778      C1785   1.256       .  A
O1778     Al1786   1.927       .  S
O1779      C1788   1.258       .  A
O1779     Al1786   1.938       .  S
O1780     Al1786   1.861       .  S
O1781      C1788   1.257       .  A
O1782     Al1786   1.791       .  S
O1783      C1784   1.267       .  A
C1784      C1986   1.502       .  S
C1785      C2005   1.490       .  S
C1788      C2146   1.507       .  S
C1789      O1790   1.284       .  A
C1789      C1970   1.472       .  S
O1791      C1806   1.279       .  A
O1791     Al1799   1.956       .  S
C1792      O1802   1.276       .  A
C1792      O1793   1.258       .  A
C1792      C1922   1.472       .  S
O1793     Al1795   1.856       .  S
O1794      C1796   1.258   1_545  A
O1794     Al1795   1.922   1_545  S
Al1795     O1803   1.935       .  S
Al1795     O1805   1.855       .  S
Al1795     O1804   1.786       .  S
C1796      O1809   1.253       .  A
O1797      C1807   1.274       .  A
O1797     Al1799   1.964       .  S
O1798      C1811   1.266       .  A
O1798     Al1808   1.959       .  S
Al1799     O1812   1.870       .  S
Al1799     O1809   1.903       .  S
Al1799     O1804   1.768       .  S
O1800      C1807   1.248       .  A
O1800     Al1808   1.825       .  S
O1801      C1810   1.259       .  A
O1801     Al1808   1.899       .  S
O1802     Al1808   1.954       .  S
O1803      C1810   1.265       .  A
O1804     Al1808   1.779       .  S
O1805      C1806   1.261       .  A
C1806      C1909   1.463       .  S
C1807      C1941   1.472       .  S
C1810      C2069   1.493       .  S
C1811      O1812   1.253       .  A
C1811      C1874   1.514       .  S
O1813      C1828   1.284       .  A
O1813     Al1821   1.970       .  S
C1814      O1824   1.279       .  A
C1814      O1815   1.267       .  A
C1814      C1973   1.475       .  S
O1815     Al1817   1.873       .  S
O1816      C1818   1.253       .  A
O1816     Al1817   1.915       .  S
Al1817     O1825   1.927       .  S
Al1817     O1827   1.869       .  S
Al1817     O1826   1.790       .  S
C1818      O1831   1.249       .  A
C1818      C1877   1.491       .  S
O1819      C1829   1.272       .  A
O1819     Al1821   1.952       .  S
O1820      C1833   1.263       .  A
O1820     Al1830   1.933       .  S
Al1821     O1834   1.867       .  S
Al1821     O1831   1.903       .  S
Al1821     O1826   1.781       .  S
O1822      C1829   1.251       .  A
O1822     Al1830   1.843       .  S
O1823      C1832   1.251       .  A
O1823     Al1830   1.900       .  S
O1824     Al1830   1.954       .  S
O1825      C1832   1.258       .  A
O1826     Al1830   1.787       .  S
O1827      C1828   1.268       .  A
C1828      C1957   1.471       .  S
C1829      C1858   1.476       .  S
C1832      C2021   1.504       .  S
C1833      O1834   1.251       .  A
C1833      C1893   1.496       .  S
O1835      C1850   1.250       .  A
O1835     Al1843   1.866       .  S
C1836      O1837   1.278       .  A
O1837     Al1839   1.960       .  S
O1838      C1840   1.250       .  A
O1838     Al1839   1.837       .  S
Al1839     O1847   1.909       .  S
Al1839     O1849   1.947       .  S
Al1839     O1848   1.783       .  S
C1840      O1853   1.274       .  A
C1840      C1861   1.471       .  S
O1841     Al1843   1.904       .  S
O1842      C1855   1.261       .  A
O1842     Al1852   1.853       .  S
Al1843     O1856   1.965       .  S
Al1843     O1853   1.961       .  S
Al1843     O1848   1.776       .  S
O1844      C1851   1.256       .  A
O1845      C1854   1.263       .  A
O1845     Al1852   1.946       .  S
O1847      C1854   1.261       .  A
O1848     Al1852   1.785       .  S
O1849      C1850   1.267       .  A
C1850      C2002   1.503       .  S
C1851      C1989   1.495       .  S
C1854      C2034   1.513       .  S
C1855      O1856   1.280       .  A
C1855      C1925   1.464       .  S
C1857      C1858   1.409       .  A
C1857      C1862   1.408       .  A
C1857      H1864   1.084       .  S
C1858      C1859   1.412       .  A
C1859      C1860   1.409       .  A
C1859      C1866   1.517       .  S
C1860      C1861   1.408       .  A
C1860      H1865   1.084       .  S
C1861      C1862   1.411       .  A
C1862      C1863   1.518       .  S
C1863      F1867   1.385       .  S
C1863      F1868   1.383       .  S
C1863      F1869   1.383       .  S
C1866      F1870   1.382       .  S
C1866      F1871   1.383       .  S
C1866      F1872   1.385       .  S
C1873      C1874   1.415       .  A
C1873      C1878   1.407       .  A
C1873      H1880   1.083       .  S
C1874      C1875   1.426       .  A
C1875      C1876   1.419       .  A
C1875      C1882   1.516       .  S
C1876      C1877   1.406       .  A
C1876      H1881   1.083       .  S
C1877      C1878   1.410       .  A
C1878      C1879   1.516       .  S
C1879      F1883   1.384       .  S
C1879      F1884   1.384       .  S
C1879      F1885   1.382       .  S
C1882      F1886   1.383       .  S
C1882      F1887   1.378       .  S
C1882      F1888   1.385       .  S
C1889      C1890   1.402       .  A
C1889      C1894   1.408       .  A
C1889      H1896   1.085       .  S
C1890      C1891   1.423       .  A
C1891      C1892   1.415       .  A
C1892      C1893   1.405       .  A
C1892      H1897   1.083       .  S
C1893      C1894   1.421       .  A
C1894      C1895   1.516       .  S
C1895      F1899   1.384       .  S
C1895      F1900   1.383       .  S
C1895      F1901   1.384       .  S
C1898      F1902   1.379       .  S
C1898      F1903   1.382       .  S
C1898      F1904   1.385       .  S
C1905      H1912   1.083       .  S
C1906      C1907   1.422       .  A
C1907      C1908   1.404       .  A
C1907      C1914   1.520       .  S
C1908      C1909   1.397       .  A
C1908      H1913   1.084       .  S
C1909      C1910   1.416   1_565  A
C1911      F1915   1.385       .  S
C1911      F1916   1.383       .  S
C1911      F1917   1.382       .  S
C1914      F1918   1.382       .  S
C1914      F1919   1.384       .  S
C1914      F1920   1.385       .  S
C1921      C1926   1.403       .  A
C1921      H1928   1.083       .  S
C1922      C1923   1.420   1_565  A
C1923      C1930   1.519       .  S
C1924      C1925   1.398       .  A
C1924      H1929   1.082       .  S
C1926      C1927   1.518       .  S
C1927      F1931   1.384       .  S
C1927      F1933   1.380       .  S
C1930      F1935   1.383       .  S
C1937      C1938   1.411       .  A
C1937      C1942   1.408   1_556  A
C1937      H1944   1.084       .  S
C1938      C1939   1.412       .  A
C1940      C1941   1.409       .  A
C1940      H1945   1.082       .  S
C1942      C1943   1.517       .  S
C1943      F1947   1.384   1_554  S
C1943      F1949   1.383       .  S
C1946      F1952   1.385       .  S
C1953      C1954   1.404   1_554  A
C1953      H1960   1.083   1_554  S
C1954      C1955   1.418       .  A
C1955      C1962   1.517       .  S
C1956      C1957   1.400       .  A
C1956      H1961   1.083       .  S
C1957      C1958   1.414       .  A
C1958      C1959   1.516       .  S
C1959      F1963   1.383       .  S
C1959      F1964   1.382       .  S
C1959      F1965   1.382       .  S
C1962      F1966   1.382       .  S
C1962      F1967   1.383       .  S
C1969      C1970   1.400       .  A
C1969      C1974   1.405       .  A
C1969      H1976   1.084       .  S
C1970      C1971   1.418       .  A
C1971      C1972   1.406       .  A
C1971      C1978   1.518       .  S
C1972      C1973   1.402       .  A
C1972      H1977   1.083       .  S
C1973      C1974   1.417       .  A
C1974      C1975   1.517       .  S
C1975      F1979   1.384       .  S
C1975      F1980   1.384       .  S
C1975      F1981   1.381       .  S
C1978      F1982   1.382       .  S
C1978      F1983   1.379       .  S
C1978      F1984   1.385       .  S
C1985      C1986   1.407       .  A
C1985      C1990   1.418       .  A
C1985      H1992   1.082       .  S
C1986      C1987   1.426       .  A
C1987      C1988   1.408       .  A
C1987      C1994   1.518       .  S
C1988      C1989   1.400       .  A
C1988      H1993   1.084       .  S
C1989      C1990   1.423       .  A
C1990      C1991   1.518       .  S
C1991      F1995   1.385       .  S
C1991      F1996   1.383       .  S
C1991      F1997   1.381       .  S
C1994      F1998   1.384       .  S
C1994      F1999   1.383       .  S
C1994      F2000   1.385       .  S
C2001      C2002   1.407       .  A
C2001      C2006   1.416       .  A
C2001      H2008   1.082       .  S
C2002      C2003   1.427       .  A
C2003      C2004   1.407       .  A
C2003      C2010   1.516       .  S
C2004      C2005   1.398       .  A
C2004      H2009   1.085       .  S
C2005      C2006   1.423       .  A
C2006      C2007   1.519       .  S
C2007      F2011   1.385       .  S
C2007      F2012   1.382       .  S
C2007      F2013   1.380       .  S
C2010      F2014   1.382       .  S
C2010      F2015   1.383       .  S
C2010      F2016   1.385       .  S
C2017      C2018   1.408       .  A
C2017      C2022   1.411   1_655  A
C2017      H2024   1.082       .  S
C2018      C2019   1.429       .  A
C2019      C2020   1.411   1_655  A
C2019      C2026   1.524       .  S
C2020      C2021   1.407       .  A
C2020      H2025   1.082       .  S
C2021      C2022   1.425       .  A
C2022      C2023   1.521       .  S
C2023      F2027   1.385       .  S
C2023      F2028   1.382       .  S
C2023      F2029   1.384       .  S
C2026      F2030   1.380       .  S
C2026      F2031   1.383       .  S
C2026      F2032   1.385       .  S
C2033      C2034   1.411       .  A
C2033      C2038   1.415       .  A
C2033      H2040   1.082       .  S
C2034      C2035   1.427       .  A
C2035      C2036   1.413       .  A
C2035      C2042   1.522       .  S
C2036      C2037   1.408       .  A
C2036      H2041   1.082       .  S
C2037      C2038   1.425       .  A
C2038      C2039   1.521       .  S
C2039      F2043   1.385       .  S
C2039      F2044   1.383       .  S
C2042      F2046   1.383       .  S
C2042      F2047   1.384       .  S
C2042      F2048   1.385       .  S
C2049      C2050   1.414   1_554  A
C2049      H2056   1.082       .  S
C2050      C2051   1.415       .  A
C2051      C2058   1.520       .  S
C2052      C2053   1.415       .  A
C2052      H2057   1.083       .  S
C2053      C2054   1.409       .  A
C2054      C2055   1.518       .  S
C2055      F2060   1.384       .  S
C2055      F2061   1.383       .  S
C2058      F2062   1.381       .  S
C2058      F2063   1.383       .  S
C2065      C2066   1.408       .  A
C2065      C2070   1.408       .  A
C2065      H2072   1.082       .  S
C2066      C2067   1.426       .  A
C2067      C2068   1.410       .  A
C2067      C2074   1.522   1_565  S
C2068      C2069   1.406       .  A
C2068      H2073   1.083       .  S
C2069      C2070   1.421       .  A
C2070      C2071   1.522       .  S
C2071      F2075   1.384       .  S
C2071      F2076   1.383       .  S
C2071      F2077   1.383       .  S
C2074      F2078   1.384       .  S
C2074      F2079   1.383       .  S
C2074      F2080   1.385       .  S
C2081      C2082   1.406       .  A
C2081      C2086   1.415       .  A
C2081      H2088   1.083       .  S
C2082      C2083   1.420       .  A
C2083      C2084   1.410       .  A
C2083      C2090   1.516       .  S
C2084      C2085   1.403       .  A
C2084      H2089   1.084       .  S
C2085      C2086   1.421       .  A
C2086      C2087   1.517       .  S
C2087      F2091   1.385       .  S
C2087      F2092   1.382       .  S
C2087      F2093   1.382       .  S
C2090      F2094   1.383       .  S
C2090      F2095   1.385       .  S
C2090      F2096   1.384       .  S
C2097      C2098   1.407       .  A
C2097      C2102   1.421       .  A
C2098      C2099   1.415       .  A
C2099      C2100   1.404       .  A
C2099      C2106   1.519       .  S
C2100      C2101   1.413       .  A
C2100      H2105   1.082       .  S
C2101      C2102   1.425       .  A
C2102      C2103   1.516       .  S
C2103      F2108   1.383       .  S
C2103      F2109   1.382       .  S
C2106      F2110   1.376       .  S
C2106      F2111   1.382       .  S
C2106      F2112   1.385       .  S
C2113      C2114   1.401   1_554  A
C2113      H2120   1.082   1_554  S
C2114      C2115   1.406   1_556  A
C2115      C2122   1.516   1_554  S
C2116      C2117   1.409       .  A
C2116      H2121   1.084       .  S
C2117      C2118   1.415       .  A
C2118      C2119   1.518       .  S
C2119      F2123   1.385   1_565  S
C2119      F2124   1.383       .  S
C2119      F2125   1.382   1_565  S
C2122      F2126   1.383   1_565  S
C2122      F2128   1.383       .  S
C2129      C2130   1.398       .  A
C2129      C2134   1.407       .  A
C2129      H2136   1.084       .  S
C2131      C2132   1.397       .  A
C2131      C2138   1.519       .  S
C2132      C2133   1.397       .  A
C2132      H2137   1.085       .  S
C2134      C2135   1.522   1_565  S
C2135      F2139   1.383   1_545  S
C2135      F2140   1.383       .  S
C2135      F2141   1.385   1_545  S
C2138      F2142   1.384       .  S
C2138      F2143   1.373       .  S
C2138      F2144   1.383       .  S
C2145      C2146   1.409       .  A
C2145      C2150   1.413   1_455  A
C2145      H2152   1.082       .  S
C2146      C2147   1.424       .  A
C2147      C2148   1.413   1_455  A
C2147      C2154   1.521       .  S
C2148      C2149   1.410       .  A
C2148      H2153   1.082       .  S
C2149      C2150   1.426       .  A
C2150      C2151   1.522       .  S
C2151      F2155   1.385       .  S
C2151      F2156   1.383       .  S
C2151      F2157   1.384       .  S
C2154      F2158   1.382       .  S
C2154      F2159   1.384       .  S
C2154      F2160   1.385   1_455  S
C2161      C2162   1.414       .  A
C2161      C2166   1.405       .  A
C2161      H2168   1.084       .  S
C2162      C2163   1.412       .  A
C2163      C2164   1.405       .  A
C2163      C2170   1.519       .  S
C2164      C2165   1.412       .  A
C2164      H2169   1.083       .  S
C2165      C2166   1.409       .  A
C2166      C2167   1.518       .  S
C2167      F2171   1.385       .  S
C2167      F2172   1.382       .  S
C2167      F2173   1.382       .  S
C2170      F2174   1.381       .  S
C2170      F2175   1.383       .  S
C2170      F2176   1.385       .  S
C2177      C2178   1.400       .  A
C2177      C2182   1.400       .  A
C2177      H2184   1.082       .  S
C2178      C2179   1.431       .  A
C2179      C2180   1.397       .  A
C2179      C2186   1.524       .  S
C2180      C2181   1.396       .  A
C2180      H2185   1.083       .  S
C2181      C2182   1.421       .  A
C2182      C2183   1.517       .  S
C2183      F2187   1.385       .  S
C2183      F2188   1.383       .  S
C2183      F2189   1.384       .  S
C2186      F2190   1.384       .  S
C2186      F2191   1.383       .  S
C2186      F2192   1.385       .  S
C2193      C2194   1.407       .  A
C2193      C2198   1.394       .  A
C2193      H2200   1.083       .  S
C2194      C2195   1.409       .  A
C2195      C2202   1.517       .  S
C2196      C2197   1.413       .  A
C2196      H2201   1.082       .  S
C2199      F2204   1.383       .  S
C2199      F2205   1.384       .  S
C2202      F2206   1.383       .  S
C2202      F2207   1.382       .  S
C2202      F2208   1.385   1_556  S
C2209      C2210   1.409       .  A
C2209      C2214   1.407       .  A
C2209      H2216   1.081       .  S
C2210      C2211   1.427       .  A
C2211      C2212   1.418       .  A
C2211      C2218   1.518       .  S
C2212      C2213   1.404       .  A
C2212      H2217   1.083       .  S
C2213      C2214   1.412       .  A
C2214      C2215   1.514       .  S
C2215      F2219   1.382       .  S
C2215      F2220   1.385       .  S
C2215      F2221   1.380       .  S
C2218      F2222   1.382       .  S
C2218      F2223   1.383       .  S
C2218      F2224   1.385       .  S
C2225      C2226   1.407       .  A
C2225      C2230   1.416       .  A
C2225      H2232   1.082       .  S
C2226      C2227   1.424       .  A
C2227      C2228   1.412       .  A
C2227      C2234   1.518       .  S
C2228      C2229   1.401       .  A
C2228      H2233   1.076       .  S
C2229      C2230   1.420       .  A
C2230      C2231   1.515       .  S
C2231      F2235   1.385       .  S
C2231      F2236   1.383       .  S
C2231      F2237   1.381       .  S
C2234      F2238   1.384       .  S
C2234      F2239   1.383       .  S
C2234      F2240   1.384       .  S
