geometry optimzed in LAMMPS
_audit_creation_date              2020-12-01 
_audit_creation_method            'lammps2cif' 
_symmetry_space_group_name_H-M    'P1' 
_symmetry_Int_Tables_number       1 
_symmetry_cell_setting            triclinic 
loop_ 
_symmetry_equiv_pos_as_xyz 
  x,y,z 
_cell_length_a                    39.81094165 
_cell_length_b                    102.6328451849075 
_cell_length_c                    57.43395805482354 
_cell_angle_alpha                 89.81166773235778 
_cell_angle_beta                  90.1221535386747 
_cell_angle_gamma                 89.81932378343762 
loop_ 
_atom_site_label 
_atom_site_type_symbol 
_atom_site_fract_x 
_atom_site_fract_y 
_atom_site_fract_z 
_atom_site_charge 
O1          O  0.08836368  0.94403716  0.46313930    -0.71200
O2          O  0.06747049  0.94196101  0.52815655    -0.71400
O3          O  0.05429533  0.95913796  0.49380288    -0.71300
O4          O  0.09988470  0.92699767  0.49765887    -0.71300
O5          O  0.14708020  0.93696095  0.50416536    -0.71200
O6          O  0.09968398  0.96942140  0.50381269    -0.71200
O7          O  0.11472297  0.95138819  0.53605381    -0.71200
O8          O  0.13329530  0.95498465  0.47145551    -0.71400
V9          V  0.07835952  0.94329669  0.49576778     1.35200
V10         V  0.12279955  0.95304787  0.50363203     1.35200
C11         C  0.11505869  0.94957228  0.45625138     0.78100
C12         C  0.08827086  0.94595262  0.54329900     0.78100
C13         C  0.06854124  0.96966198  0.49918903     0.78000
C14         C  0.13097853  0.92643836  0.50155664     0.77900
O15         O  0.24371303  0.81125159  0.45761534    -0.71200
O16         O  0.27067948  0.81618695  0.52119859    -0.71400
O17         O  0.27469244  0.79654098  0.49049195    -0.71300
O18         O  0.24102171  0.83096630  0.48854703    -0.71300
O19         O  0.19175242  0.82412920  0.49915686    -0.71200
O20         O  0.22666685  0.78955799  0.50325347    -0.71200
O21         O  0.22128368  0.80980687  0.53229344    -0.71200
O22         O  0.19589666  0.80396953  0.46966781    -0.71400
V23         V  0.25658922  0.81357912  0.48958715     1.35200
V24         V  0.20985314  0.80695271  0.50074966     1.35200
C25         C  0.21474695  0.80685110  0.45275633     0.78100
C26         C  0.25000308  0.81406500  0.53756626     0.78100
C27         C  0.25705217  0.78727959  0.49811001     0.78000
C28         C  0.21105549  0.83348030  0.49405718     0.77900
O29         O  0.23041745  0.93576428  0.28494408    -0.71200
O30         O  0.25942023  0.93014636  0.22192597    -0.71400
O31         O  0.27238931  0.94784084  0.25483471    -0.71300
O32         O  0.21844841  0.91779252  0.25213808    -0.71300
O33         O  0.17653504  0.92919471  0.23866568    -0.71200
O34         O  0.23061938  0.95977816  0.24285994    -0.71200
O35         O  0.21800894  0.94222372  0.20982849    -0.71200
O36         O  0.18844995  0.94714356  0.27200505    -0.71400
V37         V  0.24430984  0.93311067  0.25327001     1.35200
V38         V  0.20413902  0.94434438  0.24115808     1.35200
C39         C  0.20401654  0.94232377  0.28922830     0.78100
C40         C  0.24400928  0.93565124  0.20517336     0.78100
C41         C  0.26124472  0.95883638  0.24868915     0.78000
C42         C  0.18869486  0.91827417  0.24470260     0.77900
O43         O  0.08206739  0.80630432  0.28504255    -0.71200
O44         O  0.04978261  0.80603198  0.22211216    -0.71400
O45         O  0.04866968  0.78916660  0.25815444    -0.71300
O46         O  0.08187754  0.82314546  0.24927985    -0.71300
O47         O  0.13064458  0.81540488  0.23949310    -0.71200
O48         O  0.09504997  0.78093458  0.24471558    -0.71200
O49         O  0.09869734  0.79909268  0.21079425    -0.71200
O50         O  0.12846644  0.79733138  0.27341289    -0.71400
V51         V  0.06649760  0.80596859  0.25345393     1.35200
V52         V  0.11229620  0.79829462  0.24237599     1.35200
C53         C  0.11111139  0.80191686  0.28987169     0.78100
C54         C  0.06947747  0.80295169  0.20566983     0.78100
C55         C  0.06554257  0.77927300  0.25244315     0.78000
C56         C  0.11172577  0.82516054  0.24300144     0.77900
O57         O  0.24176766  0.43606577  0.77277916    -0.71200
O58         O  0.27627697  0.43502227  0.71062226    -0.71400
O59         O  0.27952925  0.45205427  0.74571960    -0.71300
O60         O  0.23989331  0.41900385  0.73745784    -0.71300
O61         O  0.19309228  0.42809459  0.72664103    -0.71200
O62         O  0.23538846  0.46142170  0.73102446    -0.71200
O63         O  0.22909108  0.44315101  0.69806984    -0.71200
O64         O  0.19811801  0.44645114  0.76005213    -0.71400
V65         V  0.25848477  0.43574402  0.74151101     1.35200
V66         V  0.21474639  0.44463860  0.72931155     1.35200
C67         C  0.21359582  0.44136676  0.77704725     0.78100
C68         C  0.25789580  0.43863758  0.69373848     0.78100
C69         C  0.26522776  0.46232213  0.73861988     0.78000
C70         C  0.21008453  0.41781509  0.73030289     0.77900
O71         O  0.08694863  0.30605659  0.74649193    -0.71200
O72         O  0.05949628  0.31000590  0.68316751    -0.71400
O73         O  0.05282113  0.29116123  0.71576273    -0.71300
O74         O  0.09247023  0.32461847  0.71402139    -0.71300
O75         O  0.14044888  0.31600602  0.70450815    -0.71200
O76         O  0.09891715  0.28255838  0.70256537    -0.71200
O77         O  0.10737634  0.30213105  0.67215577    -0.71200
O78         O  0.13272287  0.29650759  0.73498865    -0.71400
V79         V  0.07376875  0.30772659  0.71467639     1.35200
V80         V  0.11893057  0.29942369  0.70378809     1.35200
C81         C  0.11507173  0.30092779  0.75143397     0.78100
C82         C  0.07941346  0.30716437  0.66675045     0.78100
C83         C  0.06862496  0.28122884  0.70878790     0.78000
C84         C  0.12319881  0.32601245  0.70938412     0.77900
O85         O  0.08761759  0.43438331  0.94680987    -0.71200
O86         O  0.06346558  0.43194755  0.01095536    -0.71400
O87         O  0.05176913  0.44917481  0.97673954    -0.71300
O88         O  0.09851557  0.41722746  0.98114795    -0.71300
O89         O  0.14513572  0.42757080  0.98783895    -0.71200
O90         O  0.09609180  0.45940600  0.98906248    -0.71200
O91         O  0.11085805  0.44092406  0.02037591    -0.71200
O92         O  0.13089948  0.44604440  0.95631723    -0.71400
V93         V  0.07618991  0.43340267  0.97904629     1.35200
V94         V  0.11989319  0.44332437  0.98817847     1.35200
C95         C  0.11367088  0.44054990  0.94065158     0.78100
C96         C  0.08342619  0.43583456  0.02665615     0.78100
C97         C  0.06541211  0.45961541  0.98330619     0.78000
C98         C  0.12977655  0.41696346  0.98465744     0.77900
O99         O  0.24567126  0.30734911  0.91849092    -0.71200
O100        O  0.27996193  0.30782382  0.98080353    -0.71400
O101        O  0.28123639  0.29075541  0.94545917    -0.71300
O102        O  0.24561286  0.32443136  0.95378046    -0.71300
O103        O  0.19767579  0.31620670  0.96412988    -0.71200
O104        O  0.23611494  0.28228146  0.96030088    -0.71200
O105        O  0.23178669  0.30071099  0.99310081    -0.71200
O106        O  0.20106686  0.29769445  0.93104980    -0.71400
V107        V  0.26225111  0.30740648  0.94978816     1.35200
V108        V  0.21750813  0.29935925  0.96180791     1.35200
C109        C  0.21725259  0.30235301  0.91409016     0.78100
C110        C  0.26098288  0.30472880  0.99763463     0.78100
C111        C  0.26550959  0.28083299  0.95235637     0.78000
C112        C  0.21589679  0.32610914  0.96067470     0.77900
O113        O  0.19597862  0.18510052  0.50268635    -0.71200
O114        O  0.16495889  0.18372033  0.43961263    -0.71400
O115        O  0.19478924  0.16700315  0.46915778    -0.71300
O116        O  0.16500022  0.20178879  0.47309291    -0.71300
O117        O  0.21288801  0.20863692  0.45980600    -0.71200
O118        O  0.24408053  0.17344571  0.45811324    -0.71200
O119        O  0.21433224  0.18978922  0.42798280    -0.71200
O120        O  0.24389861  0.19251441  0.49049475    -0.71400
V121        V  0.18115382  0.18455253  0.47097525     1.35200
V122        V  0.22792844  0.19097389  0.45944244     1.35200
C123        C  0.22540510  0.18905480  0.50723973     0.78100
C124        C  0.18471664  0.18643593  0.42300356     0.78100
C125        C  0.22415633  0.16417571  0.46271172     0.78000
C126        C  0.18307890  0.21107565  0.46614589     0.77900
O127        O  0.34595711  0.06256828  0.53721382    -0.71200
O128        O  0.37884275  0.06579327  0.47513538    -0.71400
O129        O  0.32991828  0.07687121  0.49975977    -0.71300
O130        O  0.39601935  0.05138393  0.51247861    -0.71300
O131        O  0.36160061  0.03609019  0.50217344    -0.71200
O132        O  0.29567676  0.06196444  0.48731362    -0.71200
O133        O  0.34558703  0.05020891  0.46426360    -0.71200
O134        O  0.31092740  0.04784446  0.52603112    -0.71400
V135        V  0.36202582  0.06380532  0.50602952     1.35200
V136        V  0.32905169  0.04927422  0.49529490     1.35200
C137        C  0.32216502  0.05491209  0.54234033     0.78100
C138        C  0.36734916  0.05867936  0.45903084     0.78100
C139        C  0.30219650  0.07387652  0.49062502     0.78000
C140        C  0.39072836  0.03945490  0.50868817     0.77900
O141        O  0.20093985  0.06170161  0.71432826    -0.71200
O142        O  0.17444554  0.06341161  0.77818368    -0.71400
O143        O  0.20466898  0.07966852  0.74799748    -0.71300
O144        O  0.17002562  0.04558621  0.74465146    -0.71300
O145        O  0.21729321  0.03774162  0.75758759    -0.71200
O146        O  0.25419711  0.07198266  0.75616268    -0.71200
O147        O  0.22428394  0.05694072  0.78855141    -0.71200
O148        O  0.24795106  0.05265720  0.72483372    -0.71400
V149        V  0.18849854  0.06244780  0.74645538     1.35200
V150        V  0.23508570  0.05497067  0.75652064     1.35200
C151        C  0.22898432  0.05676939  0.70866322     0.78100
C152        C  0.19496643  0.06043979  0.79425565     0.78100
C153        C  0.23530917  0.08169803  0.75220958     0.78000
C154        C  0.18699210  0.03595015  0.75169370     0.77900
O155        O  0.36141810  0.18322170  0.67052739    -0.71200
O156        O  0.39977592  0.17890088  0.73085355    -0.71400
O157        O  0.34903787  0.16801479  0.70734891    -0.71300
O158        O  0.41274905  0.19434670  0.69419191    -0.71300
O159        O  0.37778786  0.20899950  0.70648861    -0.71200
O160        O  0.31558346  0.18240529  0.72266072    -0.71200
O161        O  0.36713629  0.19418015  0.74404752    -0.71200
O162        O  0.32558275  0.19713306  0.68437326    -0.71400
V163        V  0.38007643  0.18143972  0.70091014     1.35200
V164        V  0.34714060  0.19544094  0.71400629     1.35200
C165        C  0.33611182  0.19050359  0.66728306     0.78100
C166        C  0.39005063  0.18584648  0.74770576     0.78100
C167        C  0.32203662  0.17066139  0.71782969     0.78000
C168        C  0.40671177  0.20615190  0.69887192     0.77900
O169        O  0.38276957  0.56311033  0.03329782    -0.71200
O170        O  0.41202104  0.56541587  0.96960434    -0.71400
O171        O  0.37342936  0.57977177  0.99779494    -0.71300
O172        O  0.42282659  0.54877450  0.00531032    -0.71300
O173        O  0.38143968  0.53758256  0.99154815    -0.71200
O174        O  0.32849371  0.56866444  0.98971248    -0.71200
O175        O  0.36640639  0.55552592  0.95911125    -0.71200
O176        O  0.34200686  0.55059195  0.02226517    -0.71400
V177        V  0.39700021  0.56402133  0.00135354     1.35200
V178        V  0.35540746  0.55326086  0.99092649     1.35200
C179        C  0.35701014  0.55644392  0.03855897     0.78100
C180        C  0.39323046  0.56121897  0.95337109     0.78100
C181        C  0.34263021  0.57955805  0.99285789     0.78000
C182        C  0.41166509  0.53795052  0.99854506     0.77900
O183        O  0.20189665  0.68294590  0.05012587    -0.71200
O184        O  0.16543232  0.68244734  0.98808271    -0.71400
O185        O  0.20781575  0.66756228  0.01279175    -0.71300
O186        O  0.15785726  0.69770720  0.02566821    -0.71300
O187        O  0.19598441  0.70962850  0.00958724    -0.71200
O188        O  0.25150659  0.67928825  0.00438093    -0.71200
O189        O  0.21018015  0.69246448  0.97609266    -0.71200
O190        O  0.23909245  0.69674905  0.03837513    -0.71400
V191        V  0.18396314  0.68291263  0.01904668     1.35200
V192        V  0.22352040  0.69436963  0.00747993     1.35200
C193        C  0.22718656  0.69000244  0.05481798     0.78100
C194        C  0.18273057  0.68697754  0.97134921     0.78100
C195        C  0.23798214  0.66816854  0.00642075     0.78000
C196        C  0.16664925  0.70868242  0.01802953     0.77900
O197        O  0.21477345  0.55550028  0.20277618    -0.71200
O198        O  0.17978314  0.55619985  0.26511678    -0.71400
O199        O  0.21144293  0.57294583  0.23737135    -0.71300
O200        O  0.18109693  0.53858064  0.23040657    -0.71300
O201        O  0.22723545  0.53106612  0.24566011    -0.71200
O202        O  0.26042518  0.56589611  0.24859321    -0.71200
O203        O  0.22872394  0.55002320  0.27788771    -0.71200
O204        O  0.26061788  0.54706942  0.21615709    -0.71400
V205        V  0.19763996  0.55559235  0.23407833     1.35200
V206        V  0.24335518  0.54859017  0.24672137     1.35200
C207        C  0.24437991  0.55138252  0.19884918     0.78100
C208        C  0.19930354  0.55389791  0.28217797     0.78100
C209        C  0.24065188  0.57533191  0.24450472     0.78000
C210        C  0.19808701  0.52899848  0.23758949     0.77900
O211        O  0.36696487  0.67971076  0.21995496    -0.71200
O212        O  0.39535967  0.67683766  0.28385634    -0.71400
O213        O  0.35261071  0.66423616  0.25621910    -0.71300
O214        O  0.41163413  0.69224391  0.24731509    -0.71300
O215        O  0.37392506  0.70580574  0.25942570    -0.71200
O216        O  0.31177839  0.67753862  0.26455639    -0.71200
O217        O  0.35411318  0.68955878  0.29358452    -0.71200
O218        O  0.32965179  0.69390653  0.23037979    -0.71400
V219        V  0.38096610  0.67856299  0.25197315     1.35200
V220        V  0.34319371  0.69150903  0.26172192     1.35200
C221        C  0.34271156  0.68719066  0.21437583     0.78100
C222        C  0.37821694  0.68231197  0.29973033     0.78100
C223        C  0.32242248  0.66600262  0.26179431     0.78000
C224        C  0.40385405  0.70374692  0.25269197     0.77900
O225        O  0.51033789  0.92842021  0.79240278    -0.71200
O226        O  0.05136195  0.92982247  0.73199137    -0.71400
O227        O  0.05468995  0.94452963  0.77050030    -0.71300
O228        O  0.50846834  0.91376130  0.75407081    -0.71300
O229        O  0.46668306  0.92498902  0.74066571    -0.71200
O230        O  0.51302170  0.95618478  0.75738343    -0.71200
O231        O  0.50920570  0.94141886  0.71945575    -0.71200
O232        O  0.46885757  0.93996943  0.77916930    -0.71400
V233        V  0.03064993  0.92945352  0.76219468     1.35200
V234        V  0.49014609  0.94043229  0.74957427     1.35200
C235        C  0.48186174  0.93366499  0.79588874     0.78100
C236        C  0.03706110  0.93603813  0.71557394     0.78100
C237        C  0.04294504  0.95562296  0.76558588     0.78000
C238        C  0.48025902  0.91395104  0.74413582     0.77900
O239        O  0.31462790  0.81603174  0.79008201    -0.71200
O240        O  0.28209088  0.82080048  0.72762121    -0.71400
O241        O  0.26627860  0.80490596  0.76356219    -0.71300
O242        O  0.32908885  0.83188486  0.75448733    -0.71300
O243        O  0.36572282  0.81799405  0.74133071    -0.71200
O244        O  0.30291473  0.79074455  0.75159569    -0.71200
O245        O  0.31816813  0.80636015  0.71575194    -0.71200
O246        O  0.35116929  0.80215184  0.77719946    -0.71400
V247        V  0.29862853  0.81810700  0.75871758     1.35200
V248        V  0.33373390  0.80457304  0.74676012     1.35200
C249        C  0.33945669  0.80854844  0.79411066     0.78100
C250        C  0.29499483  0.81436390  0.71104125     0.78100
C251        C  0.27367356  0.79322655  0.75901063     0.78000
C252        C  0.35786243  0.82959674  0.74634804     0.77900
O253        O  0.32846277  0.92923825  0.95539511    -0.71200
O254        O  0.29469837  0.93005768  0.01787139    -0.71400
O255        O  0.28087952  0.94322116  0.97828276    -0.71300
O256        O  0.34072362  0.91625579  0.99490001    -0.71300
O257        O  0.38014588  0.93037948  0.00169587    -0.71200
O258        O  0.31679383  0.95755574  0.98993962    -0.71200
O259        O  0.33465305  0.94335958  0.02719787    -0.71200
O260        O  0.36353616  0.94459920  0.96416131    -0.71400
V261        V  0.31183085  0.93001680  0.98667599     1.35200
V262        V  0.34802315  0.94376103  0.99546872     1.35200
C263        C  0.35254872  0.93656962  0.94933308     0.78100
C264        C  0.31002156  0.93645112  0.03349624     0.78100
C265        C  0.28747406  0.95497468  0.98268032     0.78000
C266        C  0.37049839  0.91866076  0.00089022     0.77900
O267        O  0.48596277  0.80948819  0.95559066    -0.71200
O268        O  0.02264993  0.80990972  0.01751959    -0.71400
O269        O  0.02088394  0.79263977  0.98274886    -0.71300
O270        O  0.48906496  0.82667244  0.99059405    -0.71300
O271        O  0.44081124  0.81908036  0.00179844    -0.71200
O272        O  0.47677980  0.78478522  0.99879809    -0.71200
O273        O  0.47524967  0.80360103  0.03066083    -0.71200
O274        O  0.44112244  0.80023505  0.96929227    -0.71400
V275        V  0.50413492  0.80943245  0.98649494     1.35200
V276        V  0.45931097  0.80203350  0.99972867     1.35200
C277        C  0.45693149  0.80482261  0.95207628     0.78100
C278        C  0.50518793  0.80705739  0.03440221     0.78100
C279        C  0.50606991  0.78294644  0.99093606     0.78000
C280        C  0.45966573  0.82873174  0.99782911     0.77900
O281        O  0.46483590  0.56216227  0.70133209    -0.71200
O282        O  0.43268371  0.56542791  0.76387301    -0.71400
O283        O  0.47796066  0.57773998  0.73720562    -0.71300
O284        O  0.41824026  0.54977145  0.72779032    -0.71300
O285        O  0.45683597  0.53599794  0.73852975    -0.71200
O286        O  0.01624295  0.56432186  0.75017733    -0.71200
O287        O  0.47000674  0.55128234  0.77520731    -0.71200
O288        O  0.00388781  0.54895692  0.71345796    -0.71400
V289        V  0.44910423  0.56346508  0.73273394     1.35200
V290        V  0.48595061  0.55041695  0.74414451     1.35200
C291        C  0.49106223  0.55553303  0.69709486     0.78100
C292        C  0.44606273  0.55886912  0.78021861     0.78100
C293        C  0.50693817  0.57592141  0.74547537     0.78000
C294        C  0.42686538  0.53816574  0.73208161     0.77900
O295        O  0.11218050  0.68766318  0.71943121    -0.71200
O296        O  0.14508766  0.68748811  0.78235799    -0.71400
O297        O  0.11515866  0.67026095  0.75419878    -0.71300
O298        O  0.14367134  0.70498446  0.74748628    -0.71300
O299        O  0.09647201  0.71194961  0.76178785    -0.71200
O300        O  0.06546693  0.67681420  0.76439887    -0.71200
O301        O  0.09527751  0.69308063  0.79413425    -0.71200
O302        O  0.06498052  0.69573459  0.73176099    -0.71400
V303        V  0.12811504  0.68777491  0.75103079     1.35200
V304        V  0.08145864  0.69430256  0.76269980     1.35200
C305        C  0.08261722  0.69166714  0.71503510     0.78100
C306        C  0.12506249  0.68984695  0.79900566     0.78100
C307        C  0.08566933  0.66751925  0.76036440     0.78000
C308        C  0.12583152  0.71434734  0.75447865     0.77900
O309        O  0.12867822  0.56523415  0.53261732    -0.71200
O310        O  0.16141728  0.56634736  0.46998814    -0.71400
O311        O  0.12231601  0.58162712  0.49657779    -0.71300
O312        O  0.16849472  0.55008343  0.50630526    -0.71300
O313        O  0.12729224  0.53931597  0.49132571    -0.71200
O314        O  0.07698030  0.57105499  0.48781254    -0.71200
O315        O  0.11508853  0.55727975  0.45839796    -0.71200
O316        O  0.08770259  0.55289946  0.52113844    -0.71400
V317        V  0.14440788  0.56561038  0.50118371     1.35200
V318        V  0.10249237  0.55530463  0.48997922     1.35200
C319        C  0.10263369  0.55871058  0.53752118     0.78100
C320        C  0.14316845  0.56222425  0.45346577     0.78100
C321        C  0.09173614  0.58184986  0.49088048     0.78000
C322        C  0.15714098  0.53938207  0.49912012     0.77900
O323        O  0.43932147  0.68346028  0.55278510    -0.71200
O324        O  0.40596720  0.67953255  0.49050271    -0.71400
O325        O  0.45118801  0.66721548  0.51736736    -0.71300
O326        O  0.39293058  0.69601737  0.52594147    -0.71300
O327        O  0.43198113  0.70908723  0.51405637    -0.71200
O328        O  0.98858559  0.68002295  0.50388411    -0.71200
O329        O  0.44387925  0.69308438  0.47831880    -0.71200
O330        O  0.47874911  0.69602189  0.53971457    -0.71400
V331        V  0.42300754  0.68185800  0.52147945     1.35200
V332        V  0.46025584  0.69436071  0.50926522     1.35200
C333        C  0.46588999  0.68990875  0.55665511     0.78100
C334        C  0.41969270  0.68556561  0.47373831     0.78100
C335        C  0.47989664  0.66871804  0.50853280     0.78000
C336        C  0.40202207  0.70745876  0.52080927     0.77900
O337        O  0.33529262  0.43628400  0.44417698    -0.71200
O338        O  0.30216170  0.43483136  0.50643675    -0.71400
O339        O  0.29876451  0.45224563  0.47176087    -0.71300
O340        O  0.33775491  0.41898319  0.47893671    -0.71300
O341        O  0.38538493  0.42774798  0.48854387    -0.71200
O342        O  0.34306071  0.46107403  0.48718794    -0.71200
O343        O  0.35021113  0.44207396  0.51880413    -0.71200
O344        O  0.37928248  0.44672391  0.45640915    -0.71400
V345        V  0.31937573  0.43578822  0.47547749     1.35200
V346        V  0.36366086  0.44429126  0.48741346     1.35200
C347        C  0.36318121  0.44165164  0.43975814     0.78100
C348        C  0.32112527  0.43788122  0.52327522     0.78100
C349        C  0.31325232  0.46219935  0.47970184     0.78000
C350        C  0.36813928  0.41763743  0.48471458     0.77900
O351        O  0.49406797  0.31298716  0.41774313    -0.71200
O352        O  0.02885001  0.31698855  0.47942236    -0.71400
O353        O  0.04173307  0.30088852  0.44402321    -0.71300
O354        O  0.48226266  0.32908737  0.45329702    -0.71300
O355        O  0.44457418  0.31590350  0.46723733    -0.71200
O356        O  0.50381082  0.28744034  0.45635729    -0.71200
O357        O  0.49163564  0.30333072  0.49196340    -0.71200
O358        O  0.45621578  0.29985402  0.43110284    -0.71400
V359        V  0.51101087  0.31473048  0.44872875     1.35200
V360        V  0.47473726  0.30188311  0.46129827     1.35200
C361        C  0.46849403  0.30595850  0.41399077     0.78100
C362        C  0.51633732  0.31066120  0.49610475     0.78100
C363        C  0.03347289  0.28942778  0.44952689     0.78000
C364        C  0.45385795  0.32735790  0.46239952     0.77900
O365        O  0.49920692  0.42983842  0.27625888    -0.71200
O366        O  0.03490750  0.42686555  0.21453911    -0.71400
O367        O  0.04561935  0.44268281  0.25064840    -0.71300
O368        O  0.48977418  0.41378386  0.24020042    -0.71300
O369        O  0.45032929  0.42645853  0.22677070    -0.71200
O370        O  0.50711425  0.45580252  0.23759719    -0.71200
O371        O  0.49582947  0.43992443  0.20204489    -0.71200
O372        O  0.46045814  0.44273598  0.26290267    -0.71400
V373        V  0.51662218  0.42855862  0.24524616     1.35200
V374        V  0.47908296  0.44097889  0.23272085     1.35200
C375        C  0.47309639  0.43664806  0.27997112     0.78100
C376        C  0.52162059  0.43317191  0.19788359     0.78100
C377        C  0.53697672  0.45401330  0.24464577     0.78000
C378        C  0.46094698  0.41509068  0.23144411     0.77900
O379        O  0.33009859  0.30728910  0.24895786    -0.71200
O380        O  0.30037928  0.30904029  0.18559357    -0.71400
O381        O  0.29331262  0.29203276  0.22061747    -0.71300
O382        O  0.33592260  0.32445062  0.21419414    -0.71300
O383        O  0.38232456  0.31502953  0.20379840    -0.71200
O384        O  0.33824244  0.28204282  0.20874504    -0.71200
O385        O  0.34702583  0.29979612  0.17488115    -0.71200
O386        O  0.37506919  0.29715501  0.23764889    -0.71400
V387        V  0.31582278  0.30799221  0.21714206     1.35200
V388        V  0.35978384  0.29865552  0.20652802     1.35200
C389        C  0.35812986  0.30206772  0.25398557     0.78100
C390        C  0.31913051  0.30480659  0.16946297     0.78100
C391        C  0.30785587  0.28154603  0.21530501     0.78000
C392        C  0.36616834  0.32542365  0.20804787     0.77900
O393        O  0.10541370  0.05385880  0.04245968    -0.71200
O394        O  0.14345818  0.05585676  0.98146948    -0.71400
O395        O  0.11038856  0.07226784  0.00932075    -0.71300
O396        O  0.13960980  0.03733737  0.01434861    -0.71300
O397        O  0.09394233  0.03080068  0.99730788    -0.71200
O398        O  0.06198010  0.06579684  0.99640228    -0.71200
O399        O  0.09503058  0.05057362  0.96681903    -0.71200
O400        O  0.05977508  0.04609558  0.02767532    -0.71400
V401        V  0.12377940  0.05465961  0.01175908     1.35200
V402        V  0.07849168  0.04838869  0.99750756     1.35200
C403        C  0.07575330  0.04973346  0.04556298     0.78100
C404        C  0.12514314  0.05398971  0.96372229     0.78100
C405        C  0.08177704  0.07504047  0.00120319     0.78000
C406        C  0.12292859  0.02824489  0.00521445     0.77900
O407        O  0.45510491  0.17956095  0.99836412    -0.71200
O408        O  0.43036745  0.17754657  0.93402077    -0.71400
O409        O  0.46964097  0.16368320  0.96292378    -0.71300
O410        O  0.41485907  0.19323884  0.96973697    -0.71300
O411        O  0.45460457  0.20556048  0.95671726    -0.71200
O412        O  0.01334982  0.17585795  0.95793115    -0.71200
O413        O  0.47579564  0.18810452  0.92518183    -0.71200
O414        O  0.99335073  0.19356216  0.98934818    -0.71400
V415        V  0.44325233  0.17874958  0.96609983     1.35200
V416        V  0.48357463  0.19064597  0.95742934     1.35200
C417        C  0.47846556  0.18713226  0.00477874     0.78100
C418        C  0.44967737  0.18221055  0.91857158     0.78100
C419        C  0.00079556  0.16459066  0.96023746     0.78000
C420        C  0.42429902  0.20435296  0.96319757     0.77900
O421        O  0.43394484  0.06202628  0.20744507    -0.71200
O422        O  0.39915904  0.06568996  0.26931462    -0.71400
O423        O  0.43434917  0.08070262  0.23978594    -0.71300
O424        O  0.39757373  0.04704157  0.23656930    -0.71300
O425        O  0.44256494  0.03883008  0.25236003    -0.71200
O426        O  0.98183801  0.07273735  0.25247761    -0.71200
O427        O  0.44674842  0.05853746  0.28290484    -0.71200
O428        O  0.97938140  0.05291241  0.22192962    -0.71400
V429        V  0.41712146  0.06368428  0.23853962     1.35200
V430        V  0.46156344  0.05591483  0.25205775     1.35200
C431        C  0.46251466  0.05682511  0.20424946     0.78100
C432        C  0.41771060  0.06298812  0.28667926     0.78100
C433        C  0.46415290  0.08260412  0.24632488     0.78000
C434        C  0.41321760  0.03723758  0.24426838     0.77900
O435        O  0.09966346  0.18566222  0.17365126    -0.71200
O436        O  0.13024061  0.18204890  0.23635882    -0.71400
O437        O  0.08523057  0.16992731  0.20927894    -0.71300
O438        O  0.14565424  0.19775689  0.20092850    -0.71300
O439        O  0.10702796  0.21161161  0.21100448    -0.71200
O440        O  0.04727020  0.18332455  0.22228003    -0.71200
O441        O  0.09318376  0.19634810  0.24725554    -0.71200
O442        O  0.06013981  0.19867773  0.18533213    -0.71400
V443        V  0.11444025  0.18415027  0.20516896     1.35200
V444        V  0.07757792  0.19725795  0.21610188     1.35200
C445        C  0.07366185  0.19233271  0.16897467     0.78100
C446        C  0.11721602  0.18880585  0.25241790     0.78100
C447        C  0.05647380  0.17179466  0.21777788     0.78000
C448        C  0.13734500  0.20931089  0.20572856     0.77900
C449        C  0.02170464  0.11162419  0.23683020    -0.04900
C450        C  0.99878886  0.12203442  0.23950941     0.09300
C451        C  0.96571691  0.11952600  0.24681167    -0.02300
C452        C  0.95521329  0.10662605  0.25075733    -0.00500
C453        C  0.97735774  0.09604141  0.24636354    -0.04100
C454        C  0.01096695  0.09864928  0.23990081     0.02900
C455        C  0.00934676  0.13562756  0.23389048     0.09700
C456        C  0.94223286  0.13024559  0.24971828     0.35600
C457        C  0.53404039  0.08800540  0.23443189     0.39100
C458        C  0.01305464  0.13948829  0.21042099    -0.04500
C459        C  0.02608971  0.15186739  0.20504322     0.02700
C460        C  0.03530817  0.16042931  0.22310771    -0.04100
C461        C  0.02937066  0.15694055  0.24652375    -0.00300
C462        C  0.01650679  0.14451965  0.25191591    -0.02900
C463        C  0.00426086  0.13056746  0.19184559     0.36400
C464        C  0.03833307  0.16582075  0.26511941     0.40000
C465        C  0.03043436  0.15576576  0.18092036     0.39100
C466        C  0.51313121  0.14067028  0.27595237     0.36000
C467        C  0.05626177  0.11430772  0.23047675     0.36700
C468        C  0.92156962  0.10434615  0.25956937     0.40000
N469        N  0.03378510  0.15888027  0.16168096    -0.38100
N470        N  0.99735161  0.12341726  0.17706287    -0.39700
N471        N  0.54620494  0.17296979  0.27981098    -0.37400
N472        N  0.50951801  0.13758473  0.29518012    -0.39800
N473        N  0.92357739  0.13881011  0.25203440    -0.39600
N474        N  0.89474766  0.10255045  0.26660523    -0.37200
N475        N  0.55232553  0.07953048  0.23035959    -0.38300
N476        N  0.08381473  0.11648285  0.22543063    -0.39900
C477        C  0.00700253  0.17749516  0.06615142    -0.04900
C478        C  0.01420075  0.18977136  0.07595778     0.09300
C479        C  0.00815211  0.20116113  0.06279564    -0.02300
C480        C  0.99586932  0.20030054  0.03975191    -0.00500
C481        C  0.98881419  0.18800130  0.02973572    -0.04100
C482        C  0.49430044  0.17670773  0.04322575     0.02900
C483        C  0.02936555  0.19070849  0.09988387     0.09700
C484        C  0.01491942  0.21379809  0.07300724     0.35600
C485        C  0.48845759  0.16396583  0.03314333     0.39100
C486        C  0.06446567  0.19192041  0.10256868    -0.04500
C487        C  0.07896958  0.19263644  0.12502336     0.02700
C488        C  0.05842591  0.19224916  0.14511047    -0.04100
C489        C  0.02308570  0.19122506  0.14229157    -0.00300
C490        C  0.00873211  0.19045184  0.11979861    -0.02900
C491        C  0.58606495  0.19240764  0.08191023     0.36400
C492        C  0.00135031  0.19039908  0.16249681     0.40000
C493        C  0.11504495  0.19408074  0.12733675     0.39100
C494        C  0.97262179  0.18932731  0.11707168     0.36000
C495        C  0.01368878  0.16575981  0.07953121     0.36700
C496        C  0.99046412  0.21215794  0.02645994     0.40000
N497        N  0.64439945  0.19513303  0.12891753    -0.38100
N498        N  0.60276444  0.19282253  0.06545915    -0.39700
N499        N  0.98397447  0.18971551  0.17858432    -0.37400
N500        N  0.94382117  0.18842308  0.11486779    -0.39800
N501        N  0.02033096  0.22385747  0.08122365    -0.39600
N502        N  0.98642565  0.22168436  0.01598628    -0.37200
N503        N  0.48395429  0.15380198  0.02506310    -0.38300
N504        N  0.01912587  0.15641214  0.09023292    -0.39900
C505        C  0.00861364  0.04953316  0.09395144    -0.04900
C506        C  0.02810036  0.05175665  0.11400239     0.09300
C507        C  0.06331713  0.05248323  0.11201301    -0.02300
C508        C  0.07903071  0.05121103  0.09001800    -0.00500
C509        C  0.05949783  0.04966108  0.06939959    -0.04100
C510        C  0.02392347  0.04861071  0.07181197     0.02900
C511        C  0.01128747  0.05307341  0.13731720     0.09700
C512        C  0.08340892  0.05457164  0.13276590     0.35600
C513        C  0.00235161  0.04675706  0.05170896     0.39100
C514        C  0.00570498  0.04194319  0.15125962    -0.04500
C515        C  0.98908059  0.04308236  0.17287690     0.02700
C516        C  0.47747491  0.05545343  0.18063341    -0.04100
C517        C  0.48365729  0.06659034  0.16675874    -0.00300
C518        C  0.50061310  0.06537208  0.14524527    -0.02900
C519        C  0.01715269  0.02930101  0.14327489     0.36400
C520        C  0.47393206  0.07938359  0.17510838     0.40000
C521        C  0.98323137  0.03154201  0.18693444     0.39100
C522        C  0.50707521  0.07683514  0.13115374     0.36000
C523        C  0.97246932  0.04818891  0.09623163     0.36700
C524        C  0.11544151  0.05114143  0.08904239     0.40000
N525        N  0.97852691  0.02235068  0.19817830    -0.38100
N526        N  0.02634868  0.01923465  0.13683076    -0.39700
N527        N  0.46628170  0.08958165  0.18185827    -0.37400
N528        N  0.51230920  0.08597755  0.11990158    -0.39800
N529        N  0.09938404  0.05626871  0.14933354    -0.39600
N530        N  0.14449881  0.05101699  0.08841459    -0.37200
N531        N  0.98487412  0.04524507  0.03581867    -0.38300
N532        N  0.94369985  0.04706372  0.09818782    -0.39900
C533        C  0.03148925  0.10629838  0.99237910    -0.04900
C534        C  0.05519950  0.11416507  0.98068489     0.09300
C535        C  0.08789004  0.10939897  0.97673688    -0.02300
C536        C  0.09695991  0.09683765  0.98443449    -0.00500
C537        C  0.07297227  0.08876352  0.99560671    -0.04100
C538        C  0.04026573  0.09360372  0.99969734     0.02900
C539        C  0.04570320  0.12754994  0.97270281     0.09700
C540        C  0.11200953  0.11735281  0.96424309     0.35600
C541        C  0.01588766  0.08567796  0.01198362     0.39100
C542        C  0.55815620  0.13886689  0.98474527    -0.04500
C543        C  0.54621702  0.15137206  0.97870520     0.02700
C544        C  0.02131808  0.15259469  0.96123624    -0.04100
C545        C  0.01128190  0.14167115  0.94803682    -0.00300
C546        C  0.02367229  0.12918835  0.95363751    -0.02900
C547        C  0.58152346  0.13731446  0.00397658     0.36400
C548        C  0.98727197  0.14323898  0.92915376     0.40000
C549        C  0.55744241  0.16264820  0.99171687     0.39100
C550        C  0.01274416  0.11794801  0.94039394     0.36000
C551        C  0.99798545  0.11129532  0.99683700     0.36700
C552        C  0.13073400  0.09211337  0.97987254     0.40000
N553        N  0.56642455  0.17163626  0.00210544    -0.38100
N554        N  0.60021060  0.13603448  0.01927879    -0.39700
N555        N  0.96804269  0.14449971  0.91416638    -0.37400
N556        N  0.00390331  0.10897472  0.92990683    -0.39800
N557        N  0.13124522  0.12370562  0.95431483    -0.39600
N558        N  0.15770958  0.08839955  0.97629852    -0.37200
N559        N  0.99647720  0.07936448  0.02183457    -0.38300
N560        N  0.97123607  0.11528633  0.00026446    -0.39900
C561        C  0.24190041  0.25680194  0.23287114    -0.04900
C562        C  0.24101105  0.24879404  0.21300985     0.09300
C563        C  0.26495890  0.25050321  0.19521632    -0.02300
C564        C  0.28850799  0.26072815  0.19656616    -0.00500
C565        C  0.28828819  0.26924499  0.21589306    -0.04100
C566        C  0.26541967  0.26699158  0.23433997     0.02900
C567        C  0.21439011  0.23865048  0.21075899     0.09700
C568        C  0.26474705  0.24188628  0.17525116     0.35600
C569        C  0.26567194  0.27528131  0.25478369     0.39100
C570        C  0.18401160  0.24154078  0.19906598    -0.04500
C571        C  0.15858002  0.23202420  0.19733356     0.02700
C572        C  0.16358753  0.21953690  0.20717388    -0.04100
C573        C  0.19384841  0.21681258  0.21938473    -0.00300
C574        C  0.21915053  0.22631600  0.22101562    -0.02900
C575        C  0.17894337  0.25437748  0.18900581     0.36400
C576        C  0.19848750  0.20446213  0.23140674     0.40000
C577        C  0.12753431  0.23504783  0.18520061     0.39100
C578        C  0.25000393  0.22350025  0.23359703     0.36000
C579        C  0.21808888  0.25467232  0.25158936     0.36700
C580        C  0.31118590  0.26301289  0.17726173     0.40000
N581        N  0.10271195  0.23748095  0.17557928    -0.38100
N582        N  0.17502577  0.26464141  0.18103279    -0.39700
N583        N  0.20234747  0.19467815  0.24114191    -0.37400
N584        N  0.27457037  0.22127924  0.24368154    -0.39800
N585        N  0.26452906  0.23497577  0.15937772    -0.39600
N586        N  0.32912893  0.26488106  0.16177922    -0.37200
N587        N  0.26574437  0.28192757  0.27101890    -0.38300
N588        N  0.19910577  0.25291433  0.26650379    -0.39900
C589        C  0.42068469  0.38215120  0.23998816    -0.04900
C590        C  0.41746917  0.37794669  0.21669859     0.09300
C591        C  0.42464382  0.38666927  0.19829307    -0.02300
C592        C  0.43595505  0.39938634  0.20317231    -0.00500
C593        C  0.44126779  0.40325673  0.22643792    -0.04100
C594        C  0.43307903  0.39469364  0.24483687     0.02900
C595        C  0.40593260  0.36437114  0.21170506     0.09700
C596        C  0.42132213  0.38241230  0.17434438     0.35600
C597        C  0.43774379  0.39878659  0.26879906     0.39100
C598        C  0.37307566  0.36224308  0.20345329    -0.04500
C599        C  0.36124396  0.34946113  0.20030908     0.02700
C600        C  0.38156456  0.33861958  0.20663552    -0.04100
C601        C  0.41504552  0.34077338  0.21398181    -0.00300
C602        C  0.42725976  0.35361744  0.21621631    -0.02900
C603        C  0.35091526  0.37324566  0.19908127     0.36400
C604        C  0.43647375  0.32989372  0.22049213     0.40000
C605        C  0.32797086  0.34755076  0.19049344     0.39100
C606        C  0.46152357  0.35580901  0.22388437     0.36000
C607        C  0.41152565  0.37349662  0.25895657     0.36700
C608        C  0.44354943  0.40828503  0.18424053     0.40000
N609        N  0.30145536  0.34603640  0.18267721    -0.38100
N610        N  0.33328730  0.38203532  0.19565102    -0.39700
N611        N  0.45359299  0.32122539  0.22572721    -0.37400
N612        N  0.48880828  0.35756443  0.23008448    -0.39800
N613        N  0.41857862  0.37899875  0.15525353    -0.39600
N614        N  0.44946174  0.41539945  0.16912952    -0.37200
N615        N  0.44152372  0.40207575  0.28787950    -0.38300
N616        N  0.40422133  0.36656013  0.27403398    -0.39900
C617        C  0.40247723  0.30140113  0.36591909    -0.04900
C618        C  0.42150707  0.30348713  0.34562702     0.09300
C619        C  0.45608593  0.30623581  0.34755883    -0.02300
C620        C  0.47165891  0.30686966  0.36970089    -0.00500
C621        C  0.45251778  0.30504739  0.39029755    -0.04100
C622        C  0.41755750  0.30243980  0.38810142     0.02900
C623        C  0.40472710  0.30302302  0.32220589     0.09700
C624        C  0.47561545  0.30844470  0.32662799     0.35600
C625        C  0.39634072  0.30134720  0.40853292     0.39100
C626        C  0.38661436  0.31392616  0.31386589    -0.04500
C627        C  0.37025696  0.31347787  0.29201767     0.02700
C628        C  0.37203690  0.30209018  0.27818580    -0.04100
C629        C  0.38998601  0.29111605  0.28678054    -0.00300
C630        C  0.40622645  0.29160726  0.30865660    -0.02900
C631        C  0.38552710  0.32573953  0.32765033     0.36400
C632        C  0.39143776  0.27918866  0.27331030     0.40000
C633        C  0.35301761  0.32500169  0.28339437     0.39100
C634        C  0.42469990  0.28037036  0.31726102     0.36000
C635        C  0.36714036  0.29813726  0.36387273     0.36700
C636        C  0.50755098  0.30914883  0.37101633     0.40000
N637        N  0.33930199  0.33420878  0.27653306    -0.38100
N638        N  0.38480979  0.33514745  0.33869098    -0.39700
N639        N  0.39266148  0.26968217  0.26255684    -0.37400
N640        N  0.43954738  0.27143420  0.32413126    -0.39800
N641        N  0.49113020  0.31020728  0.30990033    -0.39600
N642        N  0.53619538  0.31097224  0.37198262    -0.37200
N643        N  0.37926284  0.30051891  0.42475252    -0.38300
N644        N  0.33902250  0.29547327  0.36215603    -0.39900
C645        C  0.40324747  0.45248663  0.38244057    -0.04900
C646        C  0.40858818  0.44040135  0.37132322     0.09300
C647        C  0.39806669  0.42882380  0.38240461    -0.02300
C648        C  0.38265977  0.42928390  0.40452375    -0.00500
C649        C  0.37768825  0.44136119  0.41585375    -0.04100
C650        C  0.38821095  0.45296155  0.40473633     0.02900
C651        C  0.42535891  0.43976659  0.34790459     0.09700
C652        C  0.40341371  0.41639279  0.37103098     0.35600
C653        C  0.38312167  0.46540910  0.41610171     0.39100
C654        C  0.46059072  0.43853269  0.34626287    -0.04500
C655        C  0.47630805  0.43733774  0.32426410     0.02700
C656        C  0.45685212  0.43743641  0.30354369    -0.04100
C657        C  0.42133460  0.43853173  0.30541073    -0.00300
C658        C  0.40585224  0.43981627  0.32741402    -0.02900
C659        C  0.48066002  0.43856495  0.36736628     0.36400
C660        C  0.40024162  0.43779763  0.28481062     0.40000
C661        C  0.51258361  0.43625978  0.32312323     0.39100
C662        C  0.36964079  0.44116711  0.32905226     0.36000
C663        C  0.41304017  0.46443110  0.37079339     0.36700
C664        C  0.37332593  0.41722777  0.41605499     0.40000
N665        N  0.04152823  0.43489566  0.32234138    -0.38100
N666        N  0.49653111  0.43863399  0.38426802    -0.39700
N667        N  0.38336296  0.43718213  0.26842081    -0.37400
N668        N  0.34077349  0.44228799  0.33038995    -0.39800
N669        N  0.40770887  0.40649470  0.36189970    -0.39600
N670        N  0.36600079  0.40759368  0.42523164    -0.37200
N671        N  0.37908470  0.47532489  0.42523406    -0.38300
N672        N  0.42072526  0.47395930  0.36141223    -0.39900
C673        C  0.37314314  0.38122708  0.49412639    -0.04900
C674        C  0.40328452  0.37820824  0.48252915     0.09300
C675        C  0.42419559  0.38830378  0.47430518    -0.02300
C676        C  0.41371541  0.40138462  0.47607505    -0.00500
C677        C  0.38252345  0.40437278  0.48649224    -0.04100
C678        C  0.36308856  0.39428936  0.49651586     0.02900
C679        C  0.41223598  0.36436246  0.47793640     0.09700
C680        C  0.45602232  0.38515799  0.46338345     0.35600
C681        C  0.33269580  0.39733408  0.50936388     0.39100
C682        C  0.40843197  0.35925759  0.45527847    -0.04500
C683        C  0.41990357  0.34659020  0.45033214     0.02700
C684        C  0.43349077  0.33881296  0.46829553    -0.04100
C685        C  0.43390330  0.34341235  0.49139264    -0.00300
C686        C  0.42459400  0.35637028  0.49607007    -0.02900
C687        C  0.39353990  0.36718500  0.43699279     0.36400
C688        C  0.44480211  0.33492551  0.51020695     0.40000
C689        C  0.41835338  0.34160263  0.42673871     0.39100
C690        C  0.42942975  0.36169468  0.51919572     0.36000
C691        C  0.35186280  0.37084277  0.50281437     0.36700
C692        C  0.43408195  0.41161822  0.46589463     0.40000
N693        N  0.41713498  0.33759928  0.40794105    -0.38100
N694        N  0.38160043  0.37353896  0.42247316    -0.39700
N695        N  0.95238717  0.32790166  0.52539338    -0.37400
N696        N  0.43358469  0.36598496  0.53758223    -0.39800
N697        N  0.48137533  0.38262220  0.45464995    -0.39600
N698        N  0.45028111  0.41977548  0.45771816    -0.37200
N699        N  0.30854836  0.39977189  0.51968135    -0.38300
N700        N  0.33494968  0.36253614  0.50969889    -0.39900
C701        C  0.23658155  0.51837100  0.49579641    -0.04900
C702        C  0.22317616  0.50589391  0.49214390     0.09300
C703        C  0.18808184  0.50410912  0.49218764    -0.02300
C704        C  0.16629325  0.51488197  0.49518913    -0.00500
C705        C  0.17957556  0.52758209  0.49851231    -0.04100
C706        C  0.21519303  0.52908270  0.49959312     0.02900
C707        C  0.24660900  0.49466010  0.48869998     0.09700
C708        C  0.17445396  0.49113560  0.48905579     0.35600
C709        C  0.23072211  0.54165869  0.50378632     0.39100
C710        C  0.26538024  0.48982291  0.50774573    -0.04500
C711        C  0.28964042  0.48000533  0.50433942     0.02700
C712        C  0.29400092  0.47446929  0.48204047    -0.04100
C713        C  0.27553432  0.47942469  0.46292737    -0.00300
C714        C  0.25213474  0.48959403  0.46620951    -0.02900
C715        C  0.25914938  0.49480240  0.53096879     0.36400
C716        C  0.28121581  0.47422524  0.43980328     0.40000
C717        C  0.30917085  0.47530786  0.52404009     0.39100
C718        C  0.23371407  0.49486277  0.44648287     0.36000
C719        C  0.27275366  0.52022950  0.49503815     0.36700
C720        C  0.13031315  0.51270095  0.49521067     0.40000
N721        N  0.32475832  0.47164736  0.53980014    -0.38100
N722        N  0.25404155  0.49876975  0.54946912    -0.39700
N723        N  0.28595314  0.47008751  0.42137313    -0.37400
N724        N  0.21892025  0.49905981  0.43078190    -0.39800
N725        N  0.16363107  0.48078571  0.48650244    -0.39600
N726        N  0.10162719  0.51088692  0.49519306    -0.37200
N727        N  0.24337831  0.55162393  0.50707588    -0.38300
N728        N  0.30155276  0.52168164  0.49437347    -0.39900
C729        C  0.02745353  0.63743010  0.51863146    -0.04900
C730        C  0.03116634  0.63301762  0.49551585     0.09300
C731        C  0.52138649  0.64099922  0.47630696    -0.02300
C732        C  0.50692991  0.65328803  0.48072966    -0.00500
C733        C  0.50098571  0.65722323  0.50388621    -0.04100
C734        C  0.01110708  0.64933259  0.52305008     0.02900
C735        C  0.04520188  0.61976017  0.49116454     0.09700
C736        C  0.52461353  0.63639159  0.45256658     0.35600
C737        C  0.00547119  0.65348885  0.54686187     0.39100
C738        C  0.02573172  0.60864494  0.49621092    -0.04500
C739        C  0.04024749  0.59611503  0.49515910     0.02700
C740        C  0.07425567  0.59463519  0.48848695    -0.04100
C741        C  0.09266797  0.60578729  0.48135005    -0.00300
C742        C  0.07839315  0.61830187  0.48319312    -0.02900
C743        C  0.49112945  0.61027663  0.50303374     0.36400
C744        C  0.12631278  0.60448022  0.47188615     0.40000
C745        C  0.02045522  0.58491401  0.50205896     0.39100
C746        C  0.09819334  0.62973630  0.47755015     0.36000
C747        C  0.04021040  0.62963226  0.53784969     0.36700
C748        C  0.49721458  0.66167704  0.46146549     0.40000
N749        N  0.50438369  0.57607179  0.50786749    -0.38100
N750        N  0.46345174  0.61165387  0.50865424    -0.39700
N751        N  0.15310257  0.60345941  0.46430165    -0.37400
N752        N  0.11391710  0.63886237  0.47302469    -0.39800
N753        N  0.52714229  0.63268504  0.43364195    -0.39600
N754        N  0.48982919  0.66838562  0.44603483    -0.37200
N755        N  0.00087592  0.65676088  0.56585680    -0.38300
N756        N  0.05051606  0.62341499  0.55313599    -0.39900
C757        C  0.03351901  0.68873346  0.60383751    -0.04900
C758        C  0.01483805  0.68970556  0.62460290     0.09300
C759        C  0.48071784  0.69043793  0.62298242    -0.02300
C760        C  0.46415164  0.69047418  0.60106527    -0.00500
C761        C  0.48287487  0.68984154  0.58012553    -0.04100
C762        C  0.01716291  0.68883333  0.58193474     0.02900
C763        C  0.03271818  0.69018179  0.64782606     0.09700
C764        C  0.46131768  0.69113891  0.64427816     0.35600
C765        C  0.03715457  0.68735461  0.56099835     0.39100
C766        C  0.03842485  0.70225727  0.65889643    -0.04500
C767        C  0.05567589  0.70278169  0.68045968     0.02700
C768        C  0.06783732  0.69124775  0.69110420    -0.04100
C769        C  0.06239203  0.67916661  0.67994153    -0.00300
C770        C  0.04478407  0.67863834  0.65849084    -0.02900
C771        C  0.02638020  0.71416783  0.64805928     0.36400
C772        C  0.07356842  0.66719675  0.69105341     0.40000
C773        C  0.06121082  0.71524300  0.69165777     0.39100
C774        C  0.03834228  0.66616895  0.64759555     0.36000
C775        C  0.06979638  0.68752845  0.60507532     0.36700
C776        C  0.42785018  0.69150608  0.60016458     0.40000
N777        N  0.06568455  0.72516421  0.70064920    -0.38100
N778        N  0.01666562  0.72365351  0.63938428    -0.39700
N779        N  0.08241824  0.65764347  0.69993841    -0.37400
N780        N  0.03309171  0.65622123  0.63890927    -0.39800
N781        N  0.44591647  0.69168910  0.66131325    -0.39600
N782        N  0.39885762  0.69231402  0.59947865    -0.37200
N783        N  0.05312850  0.68614186  0.54432933    -0.38300
N784        N  0.09871399  0.68648541  0.60613830    -0.39900
C785        C  0.05965355  0.55627080  0.65018485    -0.04900
C786        C  0.04064844  0.55643017  0.62946954     0.09300
C787        C  0.50500308  0.55611088  0.63090299    -0.02300
C788        C  0.48870241  0.55589677  0.65280514    -0.00500
C789        C  0.00784458  0.55572248  0.67352457    -0.04100
C790        C  0.04348229  0.55598683  0.67205844     0.02900
C791        C  0.05801761  0.55697155  0.60624479     0.09700
C792        C  0.48537013  0.55602288  0.60961044     0.35600
C793        C  0.06381567  0.55666361  0.69303079     0.39100
C794        C  0.06510777  0.54539608  0.59398015    -0.04500
C795        C  0.08021022  0.54593532  0.57173321     0.02700
C796        C  0.08909415  0.55807165  0.56173747    -0.04100
C797        C  0.08317028  0.56963277  0.57448826    -0.00300
C798        C  0.06753226  0.56907162  0.59656563    -0.02900
C799        C  0.55692171  0.53283895  0.60457372     0.36400
C800        C  0.09188169  0.58218115  0.56452838     0.40000
C801        C  0.08724209  0.53394219  0.55933795     0.39100
C802        C  0.06089709  0.58096767  0.60933819     0.36000
C803        C  0.09604652  0.55647746  0.64892159     0.36700
C804        C  0.45232239  0.55562627  0.65372458     0.40000
N805        N  0.09286335  0.52437781  0.54944411    -0.38100
N806        N  0.55080373  0.52288934  0.61307516    -0.39700
N807        N  0.09885569  0.59218935  0.55658214    -0.37400
N808        N  0.05558855  0.59043040  0.61961491    -0.39800
N809        N  0.46982268  0.55591125  0.59256491    -0.39600
N810        N  0.42327359  0.55547031  0.65441476    -0.37200
N811        N  0.08006293  0.55727473  0.70972522    -0.38300
N812        N  0.12506878  0.55663963  0.64787244    -0.39900
C813        C  0.04787477  0.60418206  0.77568965    -0.04900
C814        C  0.05347311  0.61258610  0.75655020     0.09300
C815        C  0.04988372  0.60781168  0.73365581    -0.02300
C816        C  0.03700959  0.59524520  0.72993359    -0.00500
C817        C  0.02878237  0.58722847  0.74908721    -0.04100
C818        C  0.03596964  0.59142354  0.77191740     0.02900
C819        C  0.06058424  0.62673234  0.76019013     0.09700
C820        C  0.05809683  0.61607677  0.71391996     0.35600
C821        C  0.02907996  0.58292461  0.79155241     0.39100
C822        C  0.09220510  0.63082835  0.76836773    -0.04500
C823        C  0.09931249  0.64422100  0.77021684     0.02700
C824        C  0.07565558  0.65362754  0.76232575    -0.04100
C825        C  0.04373887  0.64949430  0.75455848    -0.00300
C826        C  0.03595346  0.63611532  0.75413840    -0.02900
C827        C  0.11787985  0.62126107  0.77406504     0.36400
C828        C  0.52011264  0.65899067  0.74578351     0.40000
C829        C  0.13095747  0.64826540  0.78049023     0.39100
C830        C  0.50301198  0.63210678  0.74718178     0.36000
C831        C  0.05280408  0.60885870  0.79924232     0.36700
C832        C  0.53056613  0.59084890  0.70642361     0.40000
N833        N  0.15611064  0.65148795  0.78878156    -0.38100
N834        N  0.13837154  0.61363076  0.77856258    -0.39700
N835        N  0.50096986  0.66648896  0.73853057    -0.37400
N836        N  0.47648427  0.62880858  0.74146357    -0.39800
N837        N  0.06453405  0.62271054  0.69822890    -0.39600
N838        N  0.52559592  0.58737163  0.68758574    -0.37200
N839        N  0.02368809  0.57612155  0.80720608    -0.38300
N840        N  0.05696423  0.61257844  0.81802580    -0.39900
C841        C  0.20120328  0.97145873  0.98586487    -0.04900
C842        C  0.21035866  0.98464368  0.98742178     0.09300
C843        C  0.24416989  0.98827248  0.98439007    -0.02300
C844        C  0.26915481  0.97867742  0.98100784    -0.00500
C845        C  0.26059961  0.96525571  0.98124942    -0.04100
C846        C  0.22598945  0.96179140  0.98258686     0.02900
C847        C  0.18434226  0.99475420  0.99257756     0.09700
C848        C  0.25328119  0.00194515  0.98524130     0.35600
C849        C  0.21524363  0.94831257  0.98115037     0.39100
C850        C  0.18016252  0.99929422  0.01555271    -0.04500
C851        C  0.15762986  0.00958531  0.02016739     0.02700
C852        C  0.13908068  0.01535481  0.00182643    -0.04100
C853        C  0.14139907  0.01009470  0.97912197    -0.00300
C854        C  0.16437169  0.99994913  0.97448056    -0.02900
C855        C  0.19991932  0.99362731  0.03428703     0.36400
C856        C  0.12191961  0.01566326  0.96013560     0.40000
C857        C  0.15359999  0.01430331  0.04378606     0.39100
C858        C  0.16879491  0.99528976  0.95085980     0.36000
C859        C  0.16616637  0.96783560  0.98837057     0.36700
C860        C  0.30348386  0.98275962  0.97688155     0.40000
N861        N  0.15023447  0.01805071  0.06262351    -0.38100
N862        N  0.21581237  0.98910564  0.04916775    -0.39700
N863        N  0.10641333  0.02007021  0.94494988    -0.37400
N864        N  0.17250567  0.99160877  0.93201391    -0.39800
N865        N  0.26047905  0.01284762  0.98603764    -0.39600
N866        N  0.33081520  0.98607723  0.97350035    -0.37200
N867        N  0.20635683  0.93761336  0.97986982    -0.38300
N868        N  0.13821916  0.96497512  0.99038996    -0.39900
C869        C  0.39766197  0.88650802  0.02565564    -0.04900
C870        C  0.42073625  0.88257061  0.00850524     0.09300
C871        C  0.43242093  0.89159565  0.99182310    -0.02300
C872        C  0.41883128  0.90427216  0.99111759    -0.00500
C873        C  0.39272527  0.90765697  0.00651716    -0.04100
C874        C  0.38316384  0.89897841  0.02441705     0.02900
C875        C  0.43018504  0.86860253  0.00670428     0.09700
C876        C  0.45684765  0.88756174  0.97456733     0.35600
C877        C  0.35713419  0.90263717  0.04082949     0.39100
C878        C  0.40804730  0.85981157  0.99573146    -0.04500
C879        C  0.41712626  0.84662492  0.99334852     0.02700
C880        C  0.44839171  0.84222973  0.00197296    -0.04100
C881        C  0.46984388  0.85096191  0.01387965    -0.00300
C882        C  0.46086348  0.86415949  0.01599270    -0.02900
C883        C  0.37613968  0.86442610  0.98657133     0.36400
C884        C  0.50067428  0.84631072  0.02465913     0.40000
C885        C  0.39480920  0.83772739  0.98132936     0.39100
C886        C  0.48316331  0.87321741  0.02762116     0.36000
C887        C  0.38771169  0.87747676  0.04384647     0.36700
C888        C  0.42995760  0.91347797  0.97355674     0.40000
N889        N  0.37702847  0.83061494  0.97177206    -0.38100
N890        N  0.35067906  0.86813241  0.97933874    -0.39700
N891        N  0.02351137  0.84264587  0.03449184    -0.37400
N892        N  0.50095211  0.88047971  0.03679592    -0.39800
N893        N  0.47626416  0.88429377  0.96078658    -0.39600
N894        N  0.43899505  0.92082903  0.95960574    -0.37200
N895        N  0.33624614  0.90544675  0.05387968    -0.38300
N896        N  0.37989600  0.87026586  0.05837483    -0.39900
C897        C  0.23560273  0.75987506  0.77029214    -0.04900
C898        C  0.20238142  0.76180283  0.76242906     0.09300
C899        C  0.19161626  0.77430335  0.75547181    -0.02300
C900        C  0.21457481  0.78472953  0.75496654    -0.00500
C901        C  0.24846074  0.78269031  0.76177710    -0.04100
C902        C  0.25845889  0.77032273  0.77029626     0.02900
C903        C  0.17954794  0.75041149  0.75972673     0.09700
C904        C  0.15703630  0.77629367  0.74822096     0.35600
C905        C  0.29207528  0.76838209  0.77953979     0.39100
C906        C  0.15943563  0.74618913  0.77842821    -0.04500
C907        C  0.13996052  0.73479292  0.77625687     0.02700
C908        C  0.14057949  0.72758860  0.75528116    -0.04100
C909        C  0.15976071  0.73218542  0.73625750    -0.00300
C910        C  0.17917925  0.74355396  0.73850734    -0.02900
C911        C  0.15982136  0.75333780  0.80016802     0.36400
C912        C  0.15996895  0.72511340  0.71440979     0.40000
C913        C  0.12134946  0.73000381  0.79620200     0.39100
C914        C  0.19972703  0.74802102  0.71923611     0.36000
C915        C  0.24644978  0.74702563  0.77781653     0.36700
C916        C  0.20346557  0.79733995  0.74636764     0.40000
N917        N  0.10666607  0.72614388  0.81215889    -0.38100
N918        N  0.16021504  0.75904120  0.81751137    -0.39700
N919        N  0.16025283  0.71946155  0.69700937    -0.37400
N920        N  0.21624075  0.75163039  0.70397344    -0.39800
N921        N  0.12941127  0.77782783  0.74250679    -0.39600
N922        N  0.19446170  0.80738196  0.73951582    -0.37200
N923        N  0.31884453  0.76690600  0.78700984    -0.38300
N924        N  0.25512794  0.73676411  0.78374615    -0.39900
C925        C  0.35281531  0.80789355  0.86058105    -0.04900
C926        C  0.38797186  0.80623980  0.86218848     0.09300
C927        C  0.40691645  0.80498685  0.84163606    -0.02300
C928        C  0.39108469  0.80555247  0.81960884    -0.00500
C929        C  0.35578178  0.80755814  0.81774364    -0.04100
C930        C  0.33678708  0.80866112  0.83852876    -0.00300
C931        C  0.40541512  0.80586655  0.88549196     0.09700
C932        C  0.44300615  0.80312488  0.84323415     0.35600
C933        C  0.30059198  0.81015481  0.83740409     0.39100
C934        C  0.41149803  0.79385693  0.89683898    -0.04500
C935        C  0.42879853  0.79347995  0.91838418     0.02700
C936        C  0.44086381  0.80509407  0.92856427    -0.04100
C937        C  0.43526639  0.81709820  0.91697848    -0.00300
C938        C  0.41736151  0.81748086  0.89566682    -0.02900
C939        C  0.40013940  0.78186876  0.88616496     0.36400
C940        C  0.44698273  0.82913219  0.92734572     0.40000
C941        C  0.43487576  0.78108185  0.92985749     0.39100
C942        C  0.41097932  0.82985205  0.88418839     0.36000
C943        C  0.33311533  0.80860212  0.88174321     0.36700
C944        C  0.41172112  0.80432224  0.79892129     0.40000
N945        N  0.43979856  0.77120752  0.93905647    -0.38100
N946        N  0.39115180  0.77231527  0.87754351    -0.39700
N947        N  0.95661020  0.83883544  0.93550633    -0.37400
N948        N  0.40573326  0.83970865  0.87501471    -0.39800
N949        N  0.47177021  0.80163116  0.84456414    -0.39600
N950        N  0.42823291  0.80323266  0.78247458    -0.37200
N951        N  0.27169142  0.81133735  0.83657138    -0.38300
N952        N  0.31745665  0.80907729  0.89867475    -0.39900
C953        C  0.46253743  0.93140348  0.86163898    -0.04900
C954        C  0.42709697  0.93210726  0.86170964     0.09300
C955        C  0.40976394  0.93217382  0.84029914    -0.02300
C956        C  0.42757648  0.93220197  0.81900620    -0.00500
C957        C  0.46331399  0.93239047  0.81871936    -0.04100
C958        C  0.48059069  0.93148637  0.84033230     0.02900
C959        C  0.40775160  0.93316217  0.88423191     0.09700
C960        C  0.37331139  0.93219131  0.84025656     0.35600
C961        C  0.01747991  0.93171323  0.84117316     0.39100
C962        C  0.39841523  0.94552249  0.89284695    -0.04500
C963        C  0.37925021  0.94663359  0.91349810     0.02700
C964        C  0.36921793  0.93536588  0.92596527    -0.04100
C965        C  0.37818167  0.92295102  0.91704421    -0.00300
C966        C  0.39743759  0.92188810  0.89638600    -0.02900
C967        C  0.40882478  0.95714685  0.88041646     0.36400
C968        C  0.36891967  0.91121149  0.92958969     0.40000
C969        C  0.36909586  0.95943052  0.92153457     0.39100
C970        C  0.40714841  0.90916730  0.88774415     0.36000
C971        C  0.48041730  0.93068280  0.88362416     0.36700
C972        C  0.40868115  0.93150387  0.79742439     0.40000
N973        N  0.36090061  0.96965033  0.92785533    -0.38100
N974        N  0.41725688  0.96638817  0.87045088    -0.39700
N975        N  0.36163516  0.90183456  0.93960143    -0.37400
N976        N  0.41504148  0.89902474  0.88087095    -0.39800
N977        N  0.34424026  0.93217898  0.84030879    -0.39600
N978        N  0.39335251  0.93088736  0.78033012    -0.37200
N979        N  0.04654568  0.93150847  0.84167804    -0.38300
N980        N  0.49461677  0.93005674  0.90119515    -0.39900
C981        C  0.41335516  0.88840858  0.73005798    -0.04900
C982        C  0.43231578  0.87687207  0.73217177     0.09300
C983        C  0.46734962  0.87746910  0.73441451    -0.02300
C984        C  0.48326691  0.88957746  0.73715942    -0.00500
C985        C  0.46400076  0.90134230  0.73739293    -0.04100
C986        C  0.42907014  0.90064261  0.73237906     0.02900
C987        C  0.41512399  0.86417259  0.73561181     0.09700
C988        C  0.48685199  0.86548037  0.73481997     0.35600
C989        C  0.40870411  0.91232318  0.73025189     0.39100
C990        C  0.40925719  0.85573225  0.71673359    -0.04500
C991        C  0.39275778  0.84377552  0.72047967     0.02700
C992        C  0.38120702  0.84052557  0.74297841    -0.04100
C993        C  0.38836169  0.84875199  0.76198607    -0.00300
C994        C  0.40552749  0.86050484  0.75832132    -0.02900
C995        C  0.41940250  0.85954168  0.69347347     0.36400
C996        C  0.37814904  0.84508309  0.78536610     0.40000
C997        C  0.38654927  0.83507660  0.70109852     0.39100
C998        C  0.41304570  0.86894768  0.77788201     0.36000
C999        C  0.37736298  0.88759298  0.72629060     0.36700
C1000       C  0.51950636  0.88960305  0.74019148     0.40000
N1001       N  0.38167687  0.82810001  0.68567483    -0.38100
N1002       N  0.42737059  0.86262437  0.67489365    -0.39700
N1003       N  0.37003749  0.84215561  0.80400015    -0.37400
N1004       N  0.41915965  0.87570523  0.79340382    -0.39800
N1005       N  0.50234818  0.85592024  0.73503787    -0.39600
N1006       N  0.54836631  0.88949154  0.74268253    -0.37200
N1007       N  0.39219376  0.92156995  0.72832108    -0.38300
N1008       N  0.34868597  0.88688452  0.72324853    -0.39900
C1009       C  0.40178190  0.66975292  0.41477302    -0.04900
C1010       C  0.39921969  0.68082477  0.40019016     0.09300
C1011       C  0.40000145  0.69335930  0.41022222    -0.02300
C1012       C  0.40450653  0.69484377  0.43447251    -0.00500
C1013       C  0.40889383  0.68380429  0.44899662    -0.04100
C1014       C  0.40652227  0.67121670  0.43908893     0.02900
C1015       C  0.39474007  0.67944873  0.37427016     0.09700
C1016       C  0.39638244  0.70476884  0.39544547     0.35600
C1017       C  0.41046810  0.65975112  0.45367920     0.39100
C1018       C  0.36237511  0.67769913  0.36482415    -0.04500
C1019       C  0.35736800  0.67805172  0.34047050     0.02700
C1020       C  0.38477104  0.68023511  0.32516812    -0.04100
C1021       C  0.41746241  0.68127291  0.33463858    -0.00300
C1022       C  0.42238635  0.68087891  0.35907806    -0.02900
C1023       C  0.33402001  0.67584398  0.38029946     0.36400
C1024       C  0.44587486  0.68346012  0.31942049     0.40000
C1025       C  0.32382597  0.67602500  0.33121605     0.39100
C1026       C  0.45586024  0.68226150  0.36871635     0.36000
C1027       C  0.40020139  0.65685579  0.40461847     0.36700
C1028       C  0.40369259  0.70777437  0.44461048     0.40000
N1029       N  0.29708797  0.67435968  0.32387127    -0.38100
N1030       N  0.31146338  0.67434605  0.39268719    -0.39700
N1031       N  0.46868864  0.68523042  0.30739108    -0.37400
N1032       N  0.48256736  0.68335513  0.37644752    -0.39800
N1033       N  0.39359108  0.71383662  0.38356165    -0.39600
N1034       N  0.40276797  0.71806303  0.45277813    -0.37200
N1035       N  0.41372293  0.65059231  0.46528890    -0.38300
N1036       N  0.39888683  0.64657177  0.39646920    -0.39900
C1037       C  0.20172234  0.56630834  0.34464241    -0.04900
C1038       C  0.17410624  0.55983994  0.35468305     0.09300
C1039       C  0.15391122  0.55168598  0.34067015    -0.02300
C1040       C  0.16120312  0.55007162  0.31672532    -0.00500
C1041       C  0.18935867  0.55630052  0.30680688    -0.04100
C1042       C  0.20968028  0.56438767  0.32097555     0.02900
C1043       C  0.16739211  0.56114195  0.38031302     0.09700
C1044       C  0.12643993  0.54455519  0.35118481     0.35600
C1045       C  0.23903330  0.57076917  0.31131000     0.39100
C1046       C  0.14145497  0.56935915  0.38842369    -0.04500
C1047       C  0.13461386  0.57020080  0.41251564     0.02700
C1048       C  0.15384034  0.56290987  0.42870440    -0.04100
C1049       C  0.18066280  0.55511743  0.42063358    -0.00300
C1050       C  0.18730656  0.55419407  0.39654531    -0.02900
C1051       C  0.12174685  0.57690230  0.37192039     0.36400
C1052       C  0.20064562  0.54756734  0.43691849     0.40000
C1053       C  0.10788229  0.57865142  0.42072135     0.39100
C1054       C  0.21421478  0.54582854  0.38835051     0.36000
C1055       C  0.22230664  0.57481397  0.35886101     0.36700
C1056       C  0.14087120  0.54144119  0.30262528     0.40000
N1057       N  0.08664188  0.58541423  0.42731308    -0.38100
N1058       N  0.10602920  0.58291555  0.35872525    -0.39700
N1059       N  0.21702091  0.54143480  0.44951167    -0.37400
N1060       N  0.23569783  0.53917929  0.38177621    -0.39800
N1061       N  0.10468466  0.53882021  0.35970478    -0.39600
N1062       N  0.12473149  0.53452542  0.29135754    -0.37200
N1063       N  0.26260621  0.57583822  0.30382613    -0.38300
N1064       N  0.23873205  0.58156653  0.37024491    -0.39900
C1065       C  0.14168759  0.50142975  0.21884034    -0.04900
C1066       C  0.13820233  0.49452769  0.23994006     0.09300
C1067       C  0.15880833  0.49762434  0.25912437    -0.02300
C1068       C  0.18088311  0.50833653  0.25787122    -0.00500
C1069       C  0.18247418  0.51590875  0.23728388    -0.04100
C1070       C  0.16391417  0.51203973  0.21745815     0.02900
C1071       C  0.11233244  0.48409892  0.24194803     0.09700
C1072       C  0.15650440  0.48996418  0.28032277     0.35600
C1073       C  0.16737327  0.51911825  0.19566657     0.39100
C1074       C  0.12005035  0.47134866  0.23483683    -0.04500
C1075       C  0.09517006  0.46165303  0.23534043     0.02700
C1076       C  0.06255521  0.46451826  0.24395411    -0.04100
C1077       C  0.05492602  0.47733601  0.25116109    -0.00300
C1078       C  0.07975063  0.48711661  0.25002393    -0.02900
C1079       C  0.15369566  0.46825024  0.22683248     0.36400
C1080       C  0.52172491  0.48044768  0.26010249     0.40000
C1081       C  0.10286716  0.44893368  0.22566080     0.39100
C1082       C  0.07186819  0.50033314  0.25705615     0.36000
C1083       C  0.12166230  0.49780477  0.19875336     0.36700
C1084       C  0.20018683  0.51201694  0.27824183     0.40000
N1085       N  0.10906592  0.43884673  0.21776913    -0.38100
N1086       N  0.18056306  0.46577350  0.22056340    -0.39700
N1087       N  0.49526900  0.48293398  0.26715160    -0.37400
N1088       N  0.06570927  0.51090011  0.26262557    -0.39800
N1089       N  0.15461116  0.48378742  0.29715769    -0.39600
N1090       N  0.21555133  0.51492802  0.29453580    -0.37200
N1091       N  0.17023144  0.52478677  0.17833474    -0.38300
N1092       N  0.10567185  0.49488431  0.18275799    -0.39900
C1093       C  0.29869927  0.63192190  0.27826599    -0.04900
C1094       C  0.27553016  0.62909064  0.26047541     0.09300
C1095       C  0.26280574  0.63915389  0.24614022    -0.02300
C1096       C  0.27541358  0.65190532  0.24837446    -0.00500
C1097       C  0.30112116  0.65444196  0.26465294    -0.04100
C1098       C  0.31180144  0.64455194  0.28020429     0.02900
C1099       C  0.26629700  0.61531425  0.25602326     0.09700
C1100       C  0.23815580  0.63619808  0.22831765     0.35600
C1101       C  0.33779207  0.64715001  0.29732581     0.39100
C1102       C  0.23740716  0.61004572  0.26639880    -0.04500
C1103       C  0.22917421  0.59691850  0.26267476     0.02700
C1104       C  0.25026752  0.58895540  0.24883464    -0.04100
C1105       C  0.27937262  0.59422177  0.23859448    -0.00300
C1106       C  0.28736233  0.60741803  0.24217320    -0.02900
C1107       C  0.21650996  0.61812405  0.28120845     0.36400
C1108       C  0.30024359  0.58622397  0.22362715     0.40000
C1109       C  0.19928750  0.59158986  0.27354283     0.39100
C1110       C  0.31725027  0.61291469  0.23165426     0.36000
C1111       C  0.31019602  0.62164877  0.29381571     0.36700
C1112       C  0.26400706  0.66211904  0.23270057     0.40000
N1113       N  0.17540597  0.58741880  0.28223843    -0.38100
N1114       N  0.19995995  0.62457351  0.29307587    -0.39700
N1115       N  0.31671410  0.57982160  0.21161968    -0.37400
N1116       N  0.34111475  0.61731918  0.22331856    -0.39800
N1117       N  0.21853495  0.63379663  0.21408240    -0.39600
N1118       N  0.25492926  0.67027865  0.22020896    -0.37200
N1119       N  0.35870039  0.64905734  0.31090918    -0.38300
N1120       N  0.31926056  0.61342563  0.30617453    -0.39900
C1121       C  0.13419753  0.69205683  0.91456904    -0.04900
C1122       C  0.15670377  0.68670003  0.89811563     0.09300
C1123       C  0.18656392  0.68068079  0.90602844    -0.02300
C1124       C  0.19460612  0.68053619  0.92998770    -0.00500
C1125       C  0.17217318  0.68593205  0.94649643    -0.04100
C1126       C  0.14165203  0.69149477  0.93866668     0.02900
C1127       C  0.14911839  0.68739430  0.87242740     0.09700
C1128       C  0.20912328  0.67464168  0.88941324     0.35600
C1129       C  0.11864132  0.69727817  0.95521927     0.39100
C1130       C  0.16764503  0.69578402  0.85767185    -0.04500
C1131       C  0.16101547  0.69618422  0.83344703     0.02700
C1132       C  0.13507008  0.68850556  0.82389872    -0.04100
C1133       C  0.11635987  0.68021604  0.83870917    -0.00300
C1134       C  0.12367149  0.67952811  0.86274554    -0.02900
C1135       C  0.19291241  0.70428224  0.86758213     0.36400
C1136       C  0.08953696  0.67229036  0.82917010     0.40000
C1137       C  0.17993754  0.70490297  0.81853463     0.39100
C1138       C  0.10489958  0.67071482  0.87758190     0.36000
C1139       C  0.10376950  0.69849649  0.90661783     0.36700
C1140       C  0.22625306  0.67487298  0.93758815     0.40000
N1141       N  0.19505978  0.71186581  0.80665794    -0.38100
N1142       N  0.21299642  0.71107148  0.87557125    -0.39700
N1143       N  0.06803787  0.66603110  0.82156887    -0.37400
N1144       N  0.08983314  0.66372944  0.88944439    -0.39800
N1145       N  0.22706979  0.66983817  0.87611891    -0.39600
N1146       N  0.25161882  0.67042406  0.94353915    -0.37200
N1147       N  0.10000700  0.70193879  0.96820338    -0.38300
N1148       N  0.07948564  0.70362918  0.90026205    -0.39900
C1149       C  0.12832123  0.74262530  0.00913722    -0.04900
C1150       C  0.09379779  0.73964846  0.00849693     0.09300
C1151       C  0.08299226  0.72690093  0.01324691    -0.02300
C1152       C  0.10657533  0.71703044  0.01820645    -0.00500
C1153       C  0.14174419  0.71968177  0.01721923    -0.04100
C1154       C  0.15227385  0.73270546  0.01328731     0.02900
C1155       C  0.06849637  0.75004590  0.00347585     0.09700
C1156       C  0.04734983  0.72389867  0.01254171     0.35600
C1157       C  0.18760661  0.73608571  0.01388695     0.39100
C1158       C  0.06360924  0.75457586  0.98048305    -0.04500
C1159       C  0.04115552  0.76494413  0.97606387     0.02700
C1160       C  0.02279397  0.77053097  0.99453638    -0.04100
C1161       C  0.02602587  0.76534479  0.01729675    -0.00300
C1162       C  0.04925680  0.75528988  0.02178657    -0.02900
C1163       C  0.08196308  0.74862287  0.96147753     0.36400
C1164       C  0.50762379  0.77073726  0.03622850     0.40000
C1165       C  0.03696238  0.76989649  0.95254308     0.39100
C1166       C  0.05424278  0.75061554  0.04543277     0.36000
C1167       C  0.13910314  0.75597445  0.00552216     0.36700
C1168       C  0.09382774  0.70413265  0.02371337     0.40000
N1169       N  0.03357320  0.77386045  0.93379602    -0.38100
N1170       N  0.09661014  0.74382715  0.94635586    -0.39700
N1171       N  0.49229906  0.77500926  0.05152979    -0.37400
N1172       N  0.05822381  0.74687569  0.06426792    -0.39800
N1173       N  0.01895561  0.72152591  0.01197109    -0.39600
N1174       N  0.08336259  0.69391145  0.02812090    -0.37200
N1175       N  0.21577051  0.73884865  0.01435150    -0.38300
N1176       N  0.14755096  0.76663505  0.00265099    -0.39900
C1177       C  0.29432448  0.69951390  0.16060707    -0.04900
C1178       C  0.29429416  0.68845259  0.14616716     0.09300
C1179       C  0.31193436  0.67718507  0.15335178    -0.02300
C1180       C  0.32863449  0.67681246  0.17518497    -0.00500
C1181       C  0.32835082  0.68786184  0.19004555    -0.04100
C1182       C  0.31142509  0.69931108  0.18221424     0.02900
C1183       C  0.27672940  0.68891836  0.12289771     0.09700
C1184       C  0.31268580  0.66591748  0.13818307     0.35600
C1185       C  0.31177449  0.71109877  0.19608213     0.39100
C1186       C  0.29387933  0.69358922  0.10318710    -0.04500
C1187       C  0.27776817  0.69414602  0.08123532     0.02700
C1188       C  0.24370234  0.69007354  0.07860416    -0.04100
C1189       C  0.22629486  0.68578405  0.09881731    -0.00300
C1190       C  0.24282122  0.68515133  0.12070540    -0.02900
C1191       C  0.32838992  0.69792828  0.10562616     0.36400
C1192       C  0.19099913  0.68240169  0.09753172     0.40000
C1193       C  0.29705293  0.69881365  0.06149654     0.39100
C1194       C  0.22482952  0.68075593  0.14119382     0.36000
C1195       C  0.27654430  0.71116926  0.15312321     0.36700
C1196       C  0.34489822  0.66481805  0.18251948     0.40000
N1197       N  0.31262055  0.70260067  0.04588842    -0.38100
N1198       N  0.35583571  0.70143190  0.10765339    -0.39700
N1199       N  0.16279593  0.67974507  0.09663118    -0.37400
N1200       N  0.21054148  0.67727643  0.15759319    -0.39800
N1201       N  0.31328429  0.65696506  0.12599176    -0.39600
N1202       N  0.35780774  0.65521056  0.18828112    -0.37200
N1203       N  0.31180013  0.72054303  0.20702927    -0.38300
N1204       N  0.26230594  0.72043866  0.14710779    -0.39900
C1205       C  0.44070867  0.56078827  0.89519208    -0.04900
C1206       C  0.41426266  0.56284492  0.87915114     0.09300
C1207       C  0.38168010  0.56539396  0.88757976    -0.02300
C1208       C  0.37541183  0.56563668  0.91180112    -0.00500
C1209       C  0.40147132  0.56282198  0.92800592    -0.04100
C1210       C  0.43437826  0.56069028  0.91946700     0.02900
C1211       C  0.42057145  0.56194623  0.85334413     0.09700
C1212       C  0.35436202  0.56745868  0.87121260     0.35600
C1213       C  0.46166335  0.55786007  0.93542412     0.39100
C1214       C  0.42145152  0.54966204  0.84235769    -0.04500
C1215       C  0.42860656  0.54870036  0.81831979     0.02700
C1216       C  0.43476278  0.56004546  0.80491888    -0.04100
C1217       C  0.43265270  0.57238109  0.81576748    -0.00300
C1218       C  0.42577630  0.57330696  0.83988871    -0.02900
C1219       C  0.41505026  0.53798276  0.85590396     0.36400
C1220       C  0.43906518  0.58411521  0.80237565     0.40000
C1221       C  0.42903726  0.53600113  0.80727446     0.39100
C1222       C  0.42477996  0.58594815  0.85105185     0.36000
C1223       C  0.47444046  0.55853395  0.88657846     0.36700
C1224       C  0.34212087  0.56913066  0.91998902     0.40000
N1225       N  0.42934260  0.52588690  0.79841931    -0.38100
N1226       N  0.40991503  0.52868357  0.86675970    -0.39700
N1227       N  0.44423704  0.59346619  0.79166718    -0.37400
N1228       N  0.42399522  0.59602761  0.86000892    -0.39800
N1229       N  0.33258112  0.56903859  0.85811981    -0.39600
N1230       N  0.31563929  0.57199382  0.92653930    -0.37200
N1231       N  0.48379943  0.55559603  0.94788346    -0.38300
N1232       N  0.50131432  0.55674636  0.87961470    -0.39900
C1233       C  0.32472792  0.56647955  0.09897762    -0.04900
C1234       C  0.31005241  0.55477696  0.10694907     0.09300
C1235       C  0.31279221  0.54347932  0.09315626    -0.02300
C1236       C  0.32935144  0.54390534  0.07139370    -0.00500
C1237       C  0.34336623  0.55570504  0.06294748    -0.04100
C1238       C  0.34134965  0.56696195  0.07716107     0.02900
C1239       C  0.29303901  0.55410841  0.13040439     0.09700
C1240       C  0.29844534  0.53135037  0.10146178     0.35600
C1241       C  0.35527785  0.57920645  0.06910158     0.39100
C1242       C  0.25881557  0.55739443  0.13291427    -0.04500
C1243       C  0.24261285  0.55623825  0.15483537     0.02700
C1244       C  0.26071631  0.55195958  0.17491673    -0.04100
C1245       C  0.29546856  0.54874219  0.17203099    -0.00300
C1246       C  0.31115990  0.54976895  0.15001166    -0.02900
C1247       C  0.24026166  0.56204389  0.11275491     0.36400
C1248       C  0.31603685  0.54447193  0.19153628     0.40000
C1249       C  0.20717595  0.55942446  0.15629307     0.39100
C1250       C  0.34641518  0.54640057  0.14744228     0.36000
C1251       C  0.32244458  0.57806728  0.11326432     0.36700
C1252       C  0.33260920  0.53201639  0.05800085     0.40000
N1253       N  0.17886662  0.56197354  0.15728808    -0.38100
N1254       N  0.22557913  0.56581284  0.09666713    -0.39700
N1255       N  0.33271413  0.54107689  0.20694771    -0.37400
N1256       N  0.37449801  0.54371186  0.14533643    -0.39800
N1257       N  0.28701748  0.52168894  0.10815501    -0.39600
N1258       N  0.33517516  0.52249102  0.04742346    -0.37200
N1259       N  0.36643537  0.58898552  0.06273364    -0.38300
N1260       N  0.32051642  0.58729626  0.12471454    -0.39900
C1261       C  0.28380721  0.60729642  0.00749012    -0.04900
C1262       C  0.29757414  0.61738264  0.99373192     0.09300
C1263       C  0.32372031  0.61465398  0.97798952    -0.02300
C1264       C  0.33704271  0.60197906  0.97666391    -0.00500
C1265       C  0.32432561  0.59200864  0.99118049    -0.04100
C1266       C  0.29723948  0.59460755  0.00626235     0.02900
C1267       C  0.28395669  0.63086686  0.99547810     0.09700
C1268       C  0.33706648  0.62494866  0.96334681     0.35600
C1269       C  0.28446518  0.58443222  0.02142179     0.39100
C1270       C  0.30135437  0.64045723  0.00827213    -0.04500
C1271       C  0.28730403  0.65299435  0.01096171     0.02700
C1272       C  0.25573147  0.65588936  0.00096667    -0.04100
C1273       C  0.23907648  0.64638222  0.98735457    -0.00300
C1274       C  0.25327178  0.63394713  0.98456548    -0.02900
C1275       C  0.33326094  0.63728073  0.01916203     0.36400
C1276       C  0.20711983  0.64931648  0.97621958     0.40000
C1277       C  0.30441643  0.66260528  0.02509377     0.39100
C1278       C  0.23607918  0.62419826  0.97072650     0.36000
C1279       C  0.25626079  0.61006429  0.02323111     0.36700
C1280       C  0.36389345  0.59918100  0.96033398     0.40000
N1281       N  0.31813293  0.67023454  0.03641857    -0.38100
N1282       N  0.35876109  0.63473671  0.02778576    -0.39700
N1283       N  0.18159717  0.65159168  0.96738707    -0.37400
N1284       N  0.22240281  0.61639278  0.95976678    -0.39800
N1285       N  0.34771655  0.63319798  0.95175937    -0.39600
N1286       N  0.38526523  0.59694207  0.94730228    -0.37200
N1287       N  0.27437461  0.57631134  0.03353703    -0.38300
N1288       N  0.23417114  0.61227395  0.03568919    -0.39900
C1289       C  0.40484640  0.18495139  0.85990938    -0.04900
C1290       C  0.43033145  0.18100899  0.84442736     0.09300
C1291       C  0.46151973  0.17673261  0.85334773    -0.02300
C1292       C  0.46745764  0.17671704  0.87763407    -0.00500
C1293       C  0.44221422  0.18102832  0.89320209    -0.04100
C1294       C  0.41077914  0.18504539  0.88414197     0.02900
C1295       C  0.42420810  0.18178070  0.81868589     0.09700
C1296       C  0.48759988  0.17250856  0.83746514     0.35600
C1297       C  0.38499340  0.19005985  0.89942565     0.39100
C1298       C  0.42772994  0.19379713  0.80691387    -0.04500
C1299       C  0.41778778  0.19500853  0.78339311     0.02700
C1300       C  0.40452860  0.18416745  0.77141638    -0.04100
C1301       C  0.40322130  0.17192137  0.78275465    -0.00300
C1302       C  0.41247048  0.17079852  0.80644072    -0.02900
C1303       C  0.44088142  0.20498986  0.81925406     0.36400
C1304       C  0.39111551  0.16056125  0.77038100     0.40000
C1305       C  0.42178972  0.20735821  0.77135151     0.39100
C1306       C  0.40861305  0.15847525  0.81854814     0.36000
C1307       C  0.37256419  0.18915451  0.85073865     0.36700
C1308       C  0.49950788  0.17213436  0.88659697     0.40000
N1309       N  0.42514089  0.21717563  0.76167011    -0.38100
N1310       N  0.45136711  0.21389868  0.82916775    -0.39700
N1311       N  0.38153864  0.15147148  0.76054458    -0.37400
N1312       N  0.90553328  0.14847305  0.82823890    -0.39800
N1313       N  0.50839656  0.16912792  0.82477599    -0.39600
N1314       N  0.52503962  0.16847006  0.89378009    -0.37200
N1315       N  0.36388165  0.19422604  0.91103485    -0.38300
N1316       N  0.34688623  0.19249886  0.84332695    -0.39900
C1317       C  0.19629748  0.06622252  0.85997628    -0.04900
C1318       C  0.16748067  0.05933300  0.86719316     0.09300
C1319       C  0.14704504  0.05323312  0.85033266    -0.02300
C1320       C  0.15551287  0.05388852  0.82647862    -0.00500
C1321       C  0.18475893  0.06056562  0.81923707    -0.04100
C1322       C  0.20506797  0.06675477  0.83614166     0.02900
C1323       C  0.15828710  0.05857081  0.89254080     0.09700
C1324       C  0.11740963  0.04613045  0.85763936     0.35600
C1325       C  0.23460648  0.07395456  0.82896838     0.39100
C1326       C  0.13171618  0.06625766  0.90125938    -0.04500
C1327       C  0.12119352  0.06483650  0.92457809     0.02700
C1328       C  0.13792655  0.05602265  0.93967367    -0.04100
C1329       C  0.16552656  0.04875924  0.93126060    -0.00300
C1330       C  0.17528155  0.04986439  0.90766458    -0.02900
C1331       C  0.11508690  0.07561062  0.88611460     0.36400
C1332       C  0.18307038  0.03977446  0.94661593     0.40000
C1333       C  0.09314356  0.07254066  0.93302669     0.39100
C1334       C  0.20216805  0.04175642  0.89871558     0.36000
C1335       C  0.21668184  0.07289663  0.87713141     0.36700
C1336       C  0.13476011  0.04720040  0.80952829     0.40000
N1337       N  0.07064146  0.07866711  0.93958614    -0.38100
N1338       N  0.10187438  0.08308236  0.87402469    -0.39700
N1339       N  0.19715215  0.03262882  0.95886847    -0.37400
N1340       N  0.22355011  0.03526509  0.89151776    -0.39800
N1341       N  0.09373522  0.04050786  0.86353043    -0.39600
N1342       N  0.11819122  0.04183395  0.79606208    -0.37200
N1343       N  0.25815544  0.07970157  0.82321456    -0.38300
N1344       N  0.23285074  0.07822746  0.89087044    -0.39900
C1345       C  0.13001714  0.00732984  0.73910973    -0.04900
C1346       C  0.12866457  0.00124251  0.76114686     0.09300
C1347       C  0.14908786  0.00581071  0.77945581    -0.02300
C1348       C  0.17012665  0.01667852  0.77593930    -0.00500
C1349       C  0.17037524  0.02313370  0.75413452    -0.04100
C1350       C  0.15068572  0.01827162  0.73563300     0.02900
C1351       C  0.10719409  0.98947338  0.76446825     0.09700
C1352       C  0.14804070  0.99940314  0.80198441     0.35600
C1353       C  0.15199867  0.02446731  0.71289695     0.39100
C1354       C  0.11986788  0.97718719  0.75815116    -0.04500
C1355       C  0.09910663  0.96613424  0.75914678     0.02700
C1356       C  0.06523984  0.96725243  0.76673328    -0.04100
C1357       C  0.05290779  0.97957210  0.77371731    -0.00300
C1358       C  0.07389033  0.99064917  0.77259830    -0.02900
C1359       C  0.15422570  0.97602311  0.74993252     0.36400
C1360       C  0.01882997  0.98086058  0.78228330     0.40000
C1361       C  0.11241596  0.95379065  0.75091837     0.39100
C1362       C  0.06120025  0.00331505  0.77949053     0.36000
C1363       C  0.11002838  0.00231242  0.72000859     0.36700
C1364       C  0.19027167  0.02154468  0.79509988     0.40000
N1365       N  0.12318757  0.94399134  0.74430820    -0.38100
N1366       N  0.18158511  0.97514685  0.74334670    -0.39700
N1367       N  0.49035903  0.98210046  0.78652216    -0.37400
N1368       N  0.05117987  0.01343979  0.78501299    -0.39800
N1369       N  0.14711426  0.99429939  0.81996698    -0.39600
N1370       N  0.20632631  0.02540828  0.81040380    -0.37200
N1371       N  0.15316067  0.02942861  0.69479327    -0.38300
N1372       N  0.09416957  0.99828464  0.70475080    -0.39900
C1373       C  0.28586789  0.14403886  0.75506947    -0.04900
C1374       C  0.27468816  0.13530370  0.73776215     0.09300
C1375       C  0.27300165  0.13945112  0.71430450    -0.02300
C1376       C  0.28621972  0.15163442  0.70784458    -0.00500
C1377       C  0.29972889  0.15993506  0.72493881    -0.04100
C1378       C  0.29718001  0.15655217  0.74869827     0.02900
C1379       C  0.26639734  0.12150930  0.74384039     0.09700
C1380       C  0.25888435  0.13094449  0.69671453     0.35600
C1381       C  0.30759448  0.16570135  0.76649188     0.39100
C1382       C  0.23684641  0.11855779  0.75623368    -0.04500
C1383       C  0.22840404  0.10548577  0.76082509     0.02700
C1384       C  0.24824082  0.09524230  0.75167482    -0.04100
C1385       C  0.27837015  0.09821511  0.73984405    -0.00300
C1386       C  0.28774237  0.11131283  0.73640169    -0.02900
C1387       C  0.21441455  0.12895376  0.76342309     0.36400
C1388       C  0.29875807  0.08789416  0.72992749     0.40000
C1389       C  0.19945039  0.10259354  0.77525211     0.39100
C1390       C  0.31892105  0.11433541  0.72451730     0.36000
C1391       C  0.28765633  0.13988109  0.77920379     0.36700
C1392       C  0.28648380  0.15557065  0.68355744     0.40000
N1393       N  0.17654940  0.10026833  0.78691081    -0.38100
N1394       N  0.19648238  0.13725471  0.76906447    -0.39700
N1395       N  0.31495164  0.07967528  0.72190664    -0.37400
N1396       N  0.34368283  0.11678357  0.71495935    -0.39800
N1397       N  0.24769068  0.12412974  0.68270407    -0.39600
N1398       N  0.28663510  0.15869822  0.66418217    -0.37200
N1399       N  0.31555535  0.17302388  0.78074604    -0.38300
N1400       N  0.28917283  0.13653289  0.79843858    -0.39900
C1401       C  0.39415590  0.05134121  0.39667181    -0.04900
C1402       C  0.38842870  0.06349195  0.38565242     0.09300
C1403       C  0.37874735  0.07430322  0.39928172    -0.02300
C1404       C  0.37456694  0.07294681  0.42360955    -0.00500
C1405       C  0.37769088  0.06055631  0.43430888    -0.04100
C1406       C  0.38810643  0.04980771  0.42076958     0.02900
C1407       C  0.39335324  0.06486070  0.35976448     0.09700
C1408       C  0.37216310  0.08676010  0.38815740     0.35600
C1409       C  0.39359430  0.03723661  0.43178907     0.39100
C1410       C  0.37064479  0.05896914  0.34402240    -0.04500
C1411       C  0.37751439  0.05886207  0.31985070     0.02700
C1412       C  0.40674382  0.06493624  0.31119880    -0.04100
C1413       C  0.42804098  0.07168018  0.32677316    -0.00300
C1414       C  0.42168422  0.07147189  0.35093954    -0.02900
C1415       C  0.34055976  0.05275841  0.35283359     0.36400
C1416       C  0.95788639  0.07828721  0.31826242     0.40000
C1417       C  0.35559480  0.05183349  0.30411665     0.39100
C1418       C  0.44499198  0.07769864  0.36681105     0.36000
C1419       C  0.40658313  0.04043106  0.38315781     0.36700
C1420       C  0.36613025  0.08428236  0.43748062     0.40000
N1421       N  0.33820866  0.04617713  0.29155762    -0.38100
N1422       N  0.31657737  0.04780994  0.35993798    -0.39700
N1423       N  0.98094537  0.08386362  0.31116552    -0.37400
N1424       N  0.96415793  0.08229503  0.37986550    -0.39800
N1425       N  0.36681275  0.09669463  0.37928801    -0.39600
N1426       N  0.35962630  0.09334539  0.44855348    -0.37200
N1427       N  0.39807436  0.02722320  0.44060847    -0.38300
N1428       N  0.41660026  0.03178057  0.37228899    -0.39900
C1429       C  0.26628236  0.04386716  0.65162287    -0.04900
C1430       C  0.26373899  0.05487287  0.63686101     0.09300
C1431       C  0.24834764  0.06632372  0.64543960    -0.02300
C1432       C  0.23650769  0.06689393  0.66867041    -0.00500
C1433       C  0.23981257  0.05597587  0.68368045    -0.04100
C1434       C  0.25459278  0.04442397  0.67488282     0.02900
C1435       C  0.27874598  0.05463279  0.61267322     0.09700
C1436       C  0.24503007  0.07760386  0.63032291     0.35600
C1437       C  0.25739418  0.03298424  0.68966892     0.39100
C1438       C  0.26251310  0.04809681  0.59426704    -0.04500
C1439       C  0.27664041  0.04795662  0.57158517     0.02700
C1440       C  0.30750809  0.05447535  0.56679869    -0.04100
C1441       C  0.32381340  0.06089661  0.58569072    -0.00300
C1442       C  0.30949663  0.06094175  0.60826137    -0.02900
C1443       C  0.23088311  0.04156532  0.59871838     0.36400
C1444       C  0.35573955  0.06742156  0.58242629     0.40000
C1445       C  0.25865932  0.04113721  0.55334328     0.39100
C1446       C  0.32664745  0.06748627  0.62722782     0.36000
C1447       C  0.28117192  0.03194459  0.64286137     0.36700
C1448       C  0.22241599  0.07897831  0.67740130     0.40000
N1449       N  0.24413805  0.03563361  0.53895039    -0.38100
N1450       N  0.20572289  0.03632085  0.60233656    -0.39700
N1451       N  0.38119225  0.07267116  0.57998454    -0.37400
N1452       N  0.34020200  0.07272535  0.64236379    -0.39800
N1453       N  0.24249155  0.08659696  0.61822967    -0.39600
N1454       N  0.21127008  0.08862999  0.68438564    -0.37200
N1455       N  0.25966038  0.02387700  0.70151352    -0.38300
N1456       N  0.29280671  0.02240480  0.63578093    -0.39900
C1457       C  0.14192620  0.17544284  0.31208766    -0.04900
C1458       C  0.14759650  0.18706008  0.32466036     0.09300
C1459       C  0.14535787  0.19917448  0.31299711    -0.02300
C1460       C  0.13630208  0.19969898  0.28923866    -0.00500
C1461       C  0.12963259  0.18809397  0.27683748    -0.04100
C1462       C  0.13341278  0.17594644  0.28821007     0.02900
C1463       C  0.15652164  0.18652806  0.35009699     0.09700
C1464       C  0.15253755  0.21112794  0.32546140     0.35600
C1465       C  0.12755442  0.16394560  0.27557234     0.39100
C1466       C  0.18826722  0.18180177  0.35719386    -0.04500
C1467       C  0.19659566  0.18110508  0.38104838     0.02700
C1468       C  0.17401639  0.18586055  0.39810411    -0.04100
C1469       C  0.14239698  0.19079706  0.39094680    -0.00300
C1470       C  0.13342495  0.19084309  0.36710933    -0.02900
C1471       C  0.21272501  0.17788002  0.33984680     0.36400
C1472       C  0.11971421  0.19647783  0.40788019     0.40000
C1473       C  0.22824207  0.17517786  0.38798651     0.39100
C1474       C  0.10047673  0.19546272  0.36001338     0.36000
C1475       C  0.14438546  0.16294945  0.32385498     0.36700
C1476       C  0.13497029  0.21219827  0.27734923     0.40000
N1477       N  0.25339597  0.17039754  0.39354771    -0.38100
N1478       N  0.23221287  0.17477374  0.32599779    -0.39700
N1479       N  0.10173847  0.20110618  0.42135451    -0.37400
N1480       N  0.07423374  0.19917665  0.35429955    -0.39800
N1481       N  0.15809948  0.22066162  0.33543787    -0.39600
N1482       N  0.13405850  0.22215405  0.26783435    -0.37200
N1483       N  0.12295498  0.15437558  0.26546968    -0.38300
N1484       N  0.14656152  0.15298996  0.33325472    -0.39900
C1485       C  0.14882358  0.24217404  0.43919751    -0.04900
C1486       C  0.12850642  0.24685129  0.45745414     0.09300
C1487       C  0.12916472  0.24057903  0.47935216    -0.02300
C1488       C  0.14900145  0.22934309  0.48270335    -0.00500
C1489       C  0.16813526  0.22425724  0.46411358    -0.04100
C1490       C  0.16841250  0.23083654  0.44242575     0.02900
C1491       C  0.10531247  0.25810866  0.45350980     0.09700
C1492       C  0.10853068  0.24547827  0.49822310     0.35600
C1493       C  0.18669691  0.22542133  0.42286003     0.39100
C1494       C  0.07453761  0.25625802  0.44170461    -0.04500
C1495       C  0.05143730  0.26663643  0.43956890     0.02700
C1496       C  0.05880285  0.27884223  0.44956729    -0.04100
C1497       C  0.08989224  0.28072144  0.46109428    -0.00300
C1498       C  0.11322075  0.27042406  0.46275590    -0.02900
C1499       C  0.06635511  0.24356866  0.43223991     0.36400
C1500       C  0.09717039  0.29298465  0.47257042     0.40000
C1501       C  0.02026147  0.26480352  0.42689128     0.39100
C1502       C  0.14512812  0.27237711  0.47448062     0.36000
C1503       C  0.14868692  0.24883175  0.41687685     0.36700
C1504       C  0.14924104  0.22286392  0.50520584     0.40000
N1505       N  0.49565810  0.26360967  0.41608212    -0.38100
N1506       N  0.05989417  0.23343817  0.42469644    -0.39700
N1507       N  0.10297706  0.30270965  0.48187146    -0.37400
N1508       N  0.17056318  0.27390542  0.48386079    -0.39800
N1509       N  0.09208444  0.24944026  0.51322387    -0.39600
N1510       N  0.14939260  0.21766375  0.52311773    -0.37200
N1511       N  0.20105947  0.22107400  0.40718699    -0.38300
N1512       N  0.14845871  0.25414607  0.39907343    -0.39900
C1513       C  0.25656739  0.17795111  0.56706387    -0.04900
C1514       C  0.26884692  0.18972844  0.57647520     0.09300
C1515       C  0.26550547  0.20136137  0.56344554    -0.02300
C1516       C  0.25078847  0.20118753  0.54101743    -0.00500
C1517       C  0.23863758  0.18940457  0.53154168    -0.04100
C1518       C  0.24140223  0.17779664  0.54474406     0.02900
C1519       C  0.28604073  0.18990312  0.59988331     0.09700
C1520       C  0.27736401  0.21352921  0.57319394     0.35600
C1521       C  0.23017966  0.16556754  0.53484133     0.39100
C1522       C  0.32143831  0.19031691  0.60131169    -0.04500
C1523       C  0.33770925  0.19081264  0.62321271     0.02700
C1524       C  0.31876214  0.19086587  0.64407126    -0.04100
C1525       C  0.28319377  0.19050881  0.64256004    -0.00300
C1526       C  0.26702049  0.18998229  0.62059612    -0.02900
C1527       C  0.34117127  0.19016800  0.58011540     0.36400
C1528       C  0.26305126  0.19016532  0.66357157     0.40000
C1529       C  0.37406171  0.19163044  0.62417089     0.39100
C1530       C  0.23067045  0.18941643  0.61923311     0.36000
C1531       C  0.26028083  0.16593041  0.58015704     0.36700
C1532       C  0.24792568  0.21318551  0.52772714     0.40000
N1533       N  0.40305474  0.19229687  0.62498427    -0.38100
N1534       N  0.35688151  0.19006066  0.56318710    -0.39700
N1535       N  0.24690398  0.18985748  0.68029854    -0.37400
N1536       N  0.20168286  0.18890031  0.61805486    -0.39800
N1537       N  0.28687024  0.22320646  0.58107542    -0.39600
N1538       N  0.24567945  0.22274879  0.51709484    -0.37200
N1539       N  0.22130847  0.15583643  0.52680738    -0.38300
N1540       N  0.26324951  0.15633160  0.59060030    -0.39900
C1541       C  0.26425775  0.10013322  0.45301518    -0.04900
C1542       C  0.25594155  0.10937618  0.47022371     0.09300
C1543       C  0.25583325  0.10566037  0.49391011    -0.02300
C1544       C  0.26794892  0.09331011  0.50056269    -0.00500
C1545       C  0.27921510  0.08448177  0.48352312    -0.04100
C1546       C  0.27520356  0.08755634  0.45967731     0.02900
C1547       C  0.24961414  0.12331809  0.46400761     0.09700
C1548       C  0.24463931  0.11480264  0.51149725     0.35600
C1549       C  0.28415672  0.07807997  0.44205467     0.39100
C1550       C  0.21780389  0.12734324  0.45602247    -0.04500
C1551       C  0.21017240  0.14073038  0.45425301     0.02700
C1552       C  0.23426656  0.15021785  0.46089529    -0.04100
C1553       C  0.26700625  0.14610206  0.46720497    -0.00300
C1554       C  0.27466105  0.13269185  0.46852043    -0.02900
C1555       C  0.19263747  0.11767740  0.45024195     0.36400
C1556       C  0.29236415  0.15553644  0.47373440     0.40000
C1557       C  0.17733716  0.14465530  0.44563118     0.39100
C1558       C  0.30812526  0.12845669  0.47524507     0.36000
C1559       C  0.26327243  0.10380125  0.42861964     0.36700
C1560       C  0.27010157  0.08980990  0.52502775     0.40000
N1561       N  0.15111757  0.14777082  0.43882577    -0.38100
N1562       N  0.17264337  0.10996015  0.44551070    -0.39700
N1563       N  0.31262308  0.16304384  0.47898400    -0.37400
N1564       N  0.33478824  0.12502843  0.48055897    -0.39800
N1565       N  0.23566169  0.12212362  0.52546227    -0.39600
N1566       N  0.27190891  0.08695589  0.54450182    -0.37200
N1567       N  0.29104638  0.07053060  0.42790450    -0.38300
N1568       N  0.26247323  0.10675094  0.40915926    -0.39900
C1569       C  0.27547335  0.29823300  0.11167654    -0.04900
C1570       C  0.29522326  0.30570604  0.09616220     0.09300
C1571       C  0.32197232  0.31322681  0.10500632    -0.02300
C1572       C  0.32947973  0.31301992  0.12902287    -0.00500
C1573       C  0.30945689  0.30570406  0.14455828    -0.04100
C1574       C  0.28226032  0.29838811  0.13584352     0.02900
C1575       C  0.28745842  0.30587860  0.07054835     0.09700
C1576       C  0.34169076  0.32123751  0.08933939     0.35600
C1577       C  0.26211190  0.29061049  0.15163330     0.39100
C1578       C  0.25904067  0.31271938  0.06223585    -0.04500
C1579       C  0.25105545  0.31264412  0.03830162     0.02700
C1580       C  0.27175491  0.30589420  0.02233727    -0.04100
C1581       C  0.30106044  0.29955172  0.03047624    -0.00300
C1582       C  0.30864653  0.29939988  0.05454502    -0.02900
C1583       C  0.23806023  0.31990552  0.07838401     0.36400
C1584       C  0.32280511  0.29281507  0.01420814     0.40000
C1585       C  0.22178037  0.31977268  0.03004931     0.39100
C1586       C  0.33793128  0.29236803  0.06293752     0.36000
C1587       C  0.24861968  0.29015711  0.10267615     0.36700
C1588       C  0.35789648  0.32036460  0.13778726     0.40000
N1589       N  0.19845627  0.32547293  0.02349846    -0.38100
N1590       N  0.22135655  0.32561776  0.09130539    -0.39700
N1591       N  0.34019060  0.28749472  0.00118022    -0.37400
N1592       N  0.36134108  0.28678755  0.06966042    -0.39800
N1593       N  0.35737216  0.32760719  0.07677687    -0.39600
N1594       N  0.38067007  0.32615021  0.14478561    -0.37200
N1595       N  0.24603677  0.28441223  0.16423448    -0.38300
N1596       N  0.22722663  0.28369583  0.09548808    -0.39900
C1597       C  0.32354803  0.25347642  0.93430218    -0.04900
C1598       C  0.32725828  0.24673692  0.95557711     0.09300
C1599       C  0.30715139  0.25013089  0.97484253    -0.02300
C1600       C  0.28482061  0.26075968  0.97327637    -0.00500
C1601       C  0.28267747  0.26805662  0.95241575    -0.04100
C1602       C  0.30122199  0.26410288  0.93269131     0.02900
C1603       C  0.35227027  0.23596216  0.95772610     0.09700
C1604       C  0.31021270  0.24288848  0.99648657     0.35600
C1605       C  0.29716859  0.27093270  0.91069541     0.39100
C1606       C  0.38665867  0.23875882  0.96063267    -0.04500
C1607       C  0.41032742  0.22853903  0.96254553     0.02700
C1608       C  0.39954317  0.21537123  0.96230984    -0.04100
C1609       C  0.36444129  0.21273918  0.96053439    -0.00300
C1610       C  0.34129757  0.22298067  0.95742763    -0.02900
C1611       C  0.39755605  0.25222230  0.96182830     0.36400
C1612       C  0.35136246  0.19956057  0.96178386     0.40000
C1613       C  0.44554203  0.23175250  0.96542501     0.39100
C1614       C  0.30595141  0.22018071  0.95360888     0.36000
C1615       C  0.34308656  0.24955671  0.91419523     0.36700
C1616       C  0.26560309  0.26460854  0.99358774     0.40000
N1617       N  0.47356544  0.23445277  0.96763569    -0.38100
N1618       N  0.40612419  0.26297269  0.96281352    -0.39700
N1619       N  0.34063762  0.18910169  0.96282127    -0.37400
N1620       N  0.27782025  0.21797657  0.95046817    -0.39800
N1621       N  0.31260691  0.23705413  0.01369138    -0.39600
N1622       N  0.25027469  0.26766778  0.00978290    -0.37200
N1623       N  0.29381686  0.27633414  0.89311849    -0.38300
N1624       N  0.35875542  0.24642869  0.89820149    -0.39900
C1625       C  0.09225141  0.43061677  0.09232653    -0.04900
C1626       C  0.05981283  0.43390181  0.10025361     0.09300
C1627       C  0.03485039  0.43755744  0.08396558    -0.02300
C1628       C  0.04228283  0.43795995  0.05991511    -0.00500
C1629       C  0.07486408  0.43469953  0.05189931    -0.04100
C1630       C  0.09969519  0.43088454  0.06829370     0.02900
C1631       C  0.05201766  0.43358046  0.12583625     0.09700
C1632       C  0.00155696  0.44108603  0.09204798     0.35600
C1633       C  0.13272030  0.42681899  0.06046474     0.39100
C1634       C  0.55092615  0.44527640  0.13870150    -0.04500
C1635       C  0.54258138  0.44502856  0.16257139     0.02700
C1636       C  0.53544900  0.43306860  0.17385141    -0.04100
C1637       C  0.03821176  0.42130952  0.16126824    -0.00300
C1638       C  0.04612428  0.42158970  0.13727673    -0.02900
C1639       C  0.55797255  0.45758718  0.12724540     0.36400
C1640       C  0.03185771  0.40897224  0.17278306     0.40000
C1641       C  0.54186433  0.45711493  0.17563549     0.39100
C1642       C  0.04722795  0.40956960  0.12411190     0.36000
C1643       C  0.11814590  0.42713589  0.10905337     0.36700
C1644       C  0.01664759  0.44224638  0.04357338     0.40000
N1645       N  0.54143840  0.46676819  0.18599453    -0.38100
N1646       N  0.56348420  0.46740667  0.11807601    -0.39700
N1647       N  0.02683867  0.39912510  0.18199538    -0.37400
N1648       N  0.04806911  0.40000928  0.11350213    -0.39800
N1649       N  0.97504851  0.44396711  0.09851153    -0.39600
N1650       N  0.99625272  0.44569126  0.03052597    -0.37200
N1651       N  0.15901466  0.42351054  0.05422663    -0.38300
N1652       N  0.13871554  0.42439167  0.12248088    -0.39900
C1653       C  0.01821891  0.48787030  0.01021801    -0.04900
C1654       C  0.50069618  0.49296933  0.99079308     0.09300
C1655       C  0.50569017  0.48741438  0.96862877    -0.02300
C1656       C  0.02739547  0.47654130  0.96598782    -0.00500
C1657       C  0.04503029  0.47158161  0.98544947    -0.04100
C1658       C  0.04072947  0.47737725  0.00753467     0.02900
C1659       C  0.47775473  0.50438343  0.99352212     0.09700
C1660       C  0.48862424  0.49287427  0.94849057     0.35600
C1661       C  0.05849903  0.47227144  0.02770305     0.39100
C1662       C  0.49122333  0.51701125  0.99414527    -0.04500
C1663       C  0.46993362  0.52787737  0.99686359     0.02700
C1664       C  0.43437781  0.52625692  0.99789771    -0.04100
C1665       C  0.42111844  0.51342256  0.99737817    -0.00300
C1666       C  0.44284470  0.50256962  0.99556411    -0.02900
C1667       C  0.52722301  0.51879817  0.99161232     0.36400
C1668       C  0.38525622  0.51119421  0.99901887     0.40000
C1669       C  0.48536400  0.54065413  0.99835581     0.39100
C1670       C  0.42937585  0.48944696  0.99591742     0.36000
C1671       C  0.01267339  0.49347346  0.03305677     0.36700
C1672       C  0.03197906  0.47067219  0.94326131     0.40000
N1673       N  0.49800564  0.55075778  0.99981167    -0.38100
N1674       N  0.05591497  0.52003679  0.98958145    -0.39700
N1675       N  0.35665404  0.50929926  0.00015549    -0.37400
N1676       N  0.41876623  0.47896702  0.99629212    -0.39800
N1677       N  0.47505910  0.49729535  0.93245594    -0.39600
N1678       N  0.03565354  0.46595021  0.92516952    -0.37200
N1679       N  0.07265569  0.46827896  0.04385057    -0.38300
N1680       N  0.00814626  0.49793424  0.05126563    -0.39900
C1681       C  0.18312630  0.38896987  0.96360387    -0.04900
C1682       C  0.17145443  0.37884222  0.97811961     0.09300
C1683       C  0.14925108  0.38159947  0.99653879    -0.02300
C1684       C  0.13710269  0.39435235  0.99958399    -0.00500
C1685       C  0.14746928  0.40437365  0.98435475    -0.04100
C1686       C  0.17144072  0.40178730  0.96689727     0.02900
C1687       C  0.18243552  0.36519757  0.97393610     0.09700
C1688       C  0.13854546  0.37124091  0.01205625     0.35600
C1689       C  0.18290917  0.41216558  0.95167216     0.39100
C1690       C  0.21350531  0.36085602  0.98276779    -0.04500
C1691       C  0.22428279  0.34803592  0.97850271     0.02700
C1692       C  0.20374923  0.33944114  0.96552420    -0.04100
C1693       C  0.17223935  0.34374058  0.95713277    -0.00300
C1694       C  0.16167747  0.35663739  0.96126665    -0.02900
C1695       C  0.23416129  0.36959126  0.99648201     0.36400
C1696       C  0.15119728  0.33508834  0.94357020     0.40000
C1697       C  0.25617165  0.34363675  0.98808184     0.39100
C1698       C  0.12955987  0.36117649  0.95237285     0.36000
C1699       C  0.20627593  0.38608869  0.94482511     0.36700
C1700       C  0.11394051  0.39719545  0.01839585     0.40000
N1701       N  0.28160830  0.34015754  0.99570836    -0.38100
N1702       N  0.25052092  0.37657288  0.00745798    -0.39700
N1703       N  0.13433873  0.32821907  0.93273318    -0.37400
N1704       N  0.10392733  0.36481888  0.94533647    -0.39800
N1705       N  0.13007814  0.36294509  0.02439115    -0.39600
N1706       N  0.09554003  0.39948550  0.03341964    -0.37200
N1707       N  0.19218312  0.42043979  0.93956974    -0.38300
N1708       N  0.22468125  0.38376635  0.92982198    -0.39900
C1709       C  0.04406900  0.30011424  0.55671464    -0.04900
C1710       C  0.04789130  0.31220374  0.56797329     0.09300
C1711       C  0.04454333  0.32386688  0.55507060    -0.02300
C1712       C  0.03571389  0.32345121  0.53121887    -0.00500
C1713       C  0.03001747  0.31132922  0.52024947    -0.04100
C1714       C  0.53514952  0.29969322  0.53291801     0.02900
C1715       C  0.05561861  0.31247244  0.59349729     0.09700
C1716       C  0.04980466  0.33627161  0.56649296     0.35600
C1717       C  0.53230704  0.28716353  0.52141758     0.39100
C1718       C  0.08916981  0.31289152  0.60115749    -0.04500
C1719       C  0.09681368  0.31165860  0.62506149     0.02700
C1720       C  0.07080299  0.30969035  0.64166569    -0.04100
C1721       C  0.03691911  0.30995785  0.63387454    -0.00300
C1722       C  0.02949735  0.31136736  0.60991283    -0.02900
C1723       C  0.11593277  0.31440265  0.58424952     0.36400
C1724       C  0.00944166  0.30842851  0.65019118     0.40000
C1725       C  0.13163693  0.31271092  0.63234699     0.39100
C1726       C  0.49496615  0.31169685  0.60198370     0.36000
C1727       C  0.04906992  0.28810711  0.56970213     0.36700
C1728       C  0.03115840  0.33550581  0.51833063     0.40000
N1729       N  0.15943391  0.31355377  0.63808119    -0.38100
N1730       N  0.13721453  0.31562281  0.57073137    -0.39700
N1731       N  0.98738112  0.30727441  0.66312180    -0.37400
N1732       N  0.46737565  0.31190925  0.59560298    -0.39800
N1733       N  0.05414910  0.34615135  0.57565795    -0.39600
N1734       N  0.02742281  0.34514090  0.50810778    -0.37200
N1735       N  0.53017442  0.27719141  0.51218648    -0.38300
N1736       N  0.05310167  0.27855250  0.58010533    -0.39900
C1737       C  0.01401210  0.25216139  0.72438653    -0.04900
C1738       C  0.00869596  0.24655660  0.70227120     0.09300
C1739       C  0.02597821  0.25152763  0.68276133    -0.02300
C1740       C  0.04703663  0.26250101  0.68509660    -0.00500
C1741       C  0.05106448  0.26851798  0.70703317    -0.04100
C1742       C  0.03519874  0.26308731  0.72677508     0.02900
C1743       C  0.48325530  0.23607460  0.69974365     0.09700
C1744       C  0.02123062  0.24555151  0.66015662     0.35600
C1745       C  0.04079874  0.26873703  0.74957281     0.39100
C1746       C  0.44978465  0.23929481  0.69398975    -0.04500
C1747       C  0.42516497  0.22946638  0.69229978     0.02700
C1748       C  0.43357504  0.21629466  0.69707924    -0.04100
C1749       C  0.46757989  0.21308685  0.70223298    -0.00300
C1750       C  0.49223376  0.22293978  0.70332953    -0.02900
C1751       C  0.44059778  0.25283731  0.69030583     0.36400
C1752       C  0.47730263  0.19976685  0.70758660     0.40000
C1753       C  0.39130026  0.23297704  0.68525590     0.39100
C1754       C  0.02686429  0.21952965  0.70864290     0.36000
C1755       C  0.99689805  0.24686579  0.74456189     0.36700
C1756       C  0.06293075  0.26806259  0.66465848     0.40000
N1757       N  0.36433654  0.23579887  0.67955167    -0.38100
N1758       N  0.43340187  0.26366281  0.68749268    -0.39700
N1759       N  0.48514217  0.18915506  0.71187462    -0.37400
N1760       N  0.05447705  0.21690253  0.71296128    -0.39800
N1761       N  0.01739734  0.24075985  0.64213985    -0.39600
N1762       N  0.07552784  0.27254003  0.64835853    -0.37200
N1763       N  0.04543732  0.27321778  0.76775896    -0.38300
N1764       N  0.48342531  0.24278435  0.76099373    -0.39900
C1765       C  0.15372163  0.29952890  0.86378661    -0.04900
C1766       C  0.17419776  0.30157113  0.84421258     0.09300
C1767       C  0.20877929  0.30389744  0.84726182    -0.02300
C1768       C  0.22309049  0.30396528  0.86984072    -0.00500
C1769       C  0.20259596  0.30205366  0.88984006    -0.04100
C1770       C  0.16751698  0.29991311  0.88642487     0.02900
C1771       C  0.15895220  0.30136547  0.82032662     0.09700
C1772       C  0.22957888  0.30635026  0.82700657     0.35600
C1773       C  0.14481633  0.29833923  0.90597781     0.39100
C1774       C  0.14275633  0.31256780  0.81142684    -0.04500
C1775       C  0.12767938  0.31233396  0.78916980     0.02700
C1776       C  0.12831467  0.30079392  0.77570615    -0.04100
C1777       C  0.14431030  0.28953675  0.78480067    -0.00300
C1778       C  0.15963420  0.28984864  0.80699323    -0.02900
C1779       C  0.14192708  0.32439251  0.82519005     0.36400
C1780       C  0.14446377  0.27753043  0.77153905     0.40000
C1781       C  0.11318556  0.32421914  0.77969590     0.39100
C1782       C  0.17608566  0.27830548  0.81622925     0.36000
C1783       C  0.11811180  0.29707281  0.86051088     0.36700
C1784       C  0.25907388  0.30575816  0.87208893     0.40000
N1785       N  0.10189040  0.33373577  0.77210673    -0.38100
N1786       N  0.14122651  0.33379734  0.83624009    -0.39700
N1787       N  0.14453602  0.26795253  0.76095929    -0.37400
N1788       N  0.18930072  0.26912428  0.82364383    -0.39800
N1789       N  0.24605113  0.30836027  0.81081888    -0.39600
N1790       N  0.28781916  0.30717640  0.87370100    -0.37200
N1791       N  0.12647472  0.29705293  0.92141967    -0.38300
N1792       N  0.08975546  0.29512047  0.85781936    -0.39900
C1793       C  0.27338324  0.44371948  0.57963532    -0.04900
C1794       C  0.29383962  0.43698432  0.59584851     0.09300
C1795       C  0.32173894  0.42976952  0.58790051    -0.02300
C1796       C  0.32998197  0.42971812  0.56403007    -0.00500
C1797       C  0.31001085  0.43670942  0.54784885    -0.04100
C1798       C  0.28098418  0.44333052  0.55563636     0.02900
C1799       C  0.28545974  0.43714992  0.62127849     0.09700
C1800       C  0.34190796  0.42237399  0.60437435     0.35600
C1801       C  0.25931373  0.44998668  0.53906900     0.39100
C1802       C  0.25915932  0.42930901  0.62981921    -0.04500
C1803       C  0.25066786  0.42961645  0.65362612     0.02700
C1804       C  0.26901579  0.43751600  0.66921623    -0.04100
C1805       C  0.29600664  0.44507298  0.66082825    -0.00300
C1806       C  0.30397269  0.44499644  0.63686049    -0.02900
C1807       C  0.24090212  0.42087896  0.61403540     0.36400
C1808       C  0.31477737  0.45328056  0.67669780     0.40000
C1809       C  0.22306221  0.42171993  0.66208154     0.39100
C1810       C  0.33078777  0.45317325  0.62809405     0.36000
C1811       C  0.24498470  0.45131887  0.58775979     0.36700
C1812       C  0.35847503  0.42211950  0.55600950     0.40000
N1813       N  0.20094351  0.41542766  0.66867522    -0.38100
N1814       N  0.22641700  0.41415453  0.60140552    -0.39700
N1815       N  0.32980505  0.45981324  0.68935126    -0.37400
N1816       N  0.35215984  0.45969636  0.62104337    -0.39800
N1817       N  0.35790886  0.41649555  0.61759765    -0.39600
N1818       N  0.38108883  0.41600159  0.54960158    -0.37200
N1819       N  0.24187382  0.45522524  0.52585739    -0.38300
N1820       N  0.22241830  0.45743249  0.59425461    -0.39900
C1821       C  0.30481676  0.49382772  0.71616547    -0.04900
C1822       C  0.32947791  0.49607069  0.73333541     0.09300
C1823       C  0.33095740  0.48796601  0.75316429    -0.02300
C1824       C  0.30828735  0.47752832  0.75569985    -0.00500
C1825       C  0.28444003  0.47481314  0.73801622    -0.04100
C1826       C  0.28243570  0.48322082  0.71839576     0.02900
C1827       C  0.35350770  0.50721292  0.73110807     0.09700
C1828       C  0.35641572  0.49026434  0.77079665     0.35600
C1829       C  0.25859480  0.48065548  0.69984372     0.39100
C1830       C  0.34624645  0.51912592  0.74215486    -0.04500
C1831       C  0.37007269  0.52925456  0.74215138     0.02700
C1832       C  0.40149663  0.52756400  0.73098555    -0.04100
C1833       C  0.40842190  0.51572439  0.71942356    -0.00300
C1834       C  0.38442930  0.50559137  0.71944059    -0.02900
C1835       C  0.31438181  0.52082909  0.75400373     0.36400
C1836       C  0.43993800  0.51404963  0.70715604     0.40000
C1837       C  0.36271775  0.54118892  0.75467803     0.39100
C1838       C  0.39158283  0.49342232  0.70767769     0.36000
C1839       C  0.30303780  0.50230839  0.69595128     0.36700
C1840       C  0.30932095  0.46971366  0.77678740     0.40000
N1841       N  0.35685295  0.55069488  0.76469371    -0.38100
N1842       N  0.28897443  0.52215780  0.76346093    -0.39700
N1843       N  0.46507218  0.51273875  0.69734209    -0.37400
N1844       N  0.39717447  0.48370528  0.69825463    -0.39800
N1845       N  0.37688608  0.49211369  0.78472226    -0.39600
N1846       N  0.31016141  0.46353482  0.79367244    -0.37200
N1847       N  0.23963127  0.47862677  0.68500149    -0.38300
N1848       N  0.30169644  0.50907872  0.67981842    -0.39900
C1849       C  0.20341189  0.43898870  0.84377821    -0.04900
C1850       C  0.16859045  0.44100790  0.84645946     0.09300
C1851       C  0.14854443  0.44318576  0.82662244    -0.02300
C1852       C  0.16302061  0.44330238  0.80415901    -0.00500
C1853       C  0.19828423  0.44138960  0.80114929    -0.04100
C1854       C  0.21829446  0.43927894  0.82138756     0.02900
C1855       C  0.15294618  0.44098928  0.87029005     0.09700
C1856       C  0.11270608  0.44530373  0.82943041     0.35600
C1857       C  0.25439919  0.43768059  0.81957099     0.39100
C1858       C  0.15075020  0.45264580  0.88317094    -0.04500
C1859       C  0.13675673  0.45261640  0.90578190     0.02700
C1860       C  0.12491979  0.44088551  0.91582400    -0.04100
C1861       C  0.12615348  0.42927794  0.90252927    -0.00300
C1862       C  0.13999101  0.42936796  0.87986140    -0.02900
C1863       C  0.16287310  0.46469694  0.87302492     0.36400
C1864       C  0.11467432  0.41707031  0.91248565     0.40000
C1865       C  0.13375329  0.46476061  0.91846902     0.39100
C1866       C  0.14115096  0.41746354  0.86634481     0.36000
C1867       C  0.22394683  0.43658612  0.86425593     0.36700
C1868       C  0.14088209  0.44520551  0.78432207     0.40000
N1869       N  0.13119947  0.47444911  0.92857440    -0.38100
N1870       N  0.17251720  0.47429433  0.86483008    -0.39700
N1871       N  0.10564884  0.40731545  0.92043656    -0.37400
N1872       N  0.14198530  0.40798887  0.85549038    -0.39800
N1873       N  0.08415402  0.44700414  0.83171280    -0.39600
N1874       N  0.12297867  0.44679811  0.76865676    -0.37200
N1875       N  0.28323135  0.43639495  0.81830110    -0.38300
N1876       N  0.24020159  0.43463718  0.88063654    -0.39900
C1877       C  0.15188477  0.38825682  0.72923437    -0.04900
C1878       C  0.17269668  0.37883031  0.71860504     0.09300
C1879       C  0.20501173  0.38238249  0.71092033    -0.02300
C1880       C  0.21700502  0.39511224  0.71462899    -0.00500
C1881       C  0.19643239  0.40456504  0.72565105    -0.04100
C1882       C  0.16350717  0.40112158  0.73245859     0.02900
C1883       C  0.16079591  0.36509386  0.71559137     0.09700
C1884       C  0.22588849  0.37289820  0.69901325     0.35600
C1885       C  0.14179079  0.41063593  0.74343593     0.39100
C1886       C  0.13609152  0.36215489  0.69874248    -0.04500
C1887       C  0.12455381  0.34926136  0.69620954     0.02700
C1888       C  0.13818787  0.33917506  0.71013798    -0.04100
C1889       C  0.16387349  0.34199983  0.72630606    -0.00300
C1890       C  0.17471780  0.35495853  0.72931767    -0.02900
C1891       C  0.12250382  0.37242463  0.68405242     0.36400
C1892       C  0.17837397  0.33165034  0.74040717     0.40000
C1893       C  0.09899571  0.34630806  0.67896421     0.39100
C1894       C  0.19967690  0.35792807  0.74694465     0.36000
C1895       C  0.11862121  0.38463875  0.73719338     0.36700
C1896       C  0.25032180  0.39851377  0.70638272     0.40000
N1897       N  0.07867153  0.34391073  0.66520510    -0.38100
N1898       N  0.11159631  0.38064421  0.67241864    -0.39700
N1899       N  0.19005644  0.32339826  0.75160342    -0.37400
N1900       N  0.21959644  0.36030723  0.76099088    -0.39800
N1901       N  0.24249466  0.36530711  0.68956720    -0.39600
N1902       N  0.27687582  0.40119785  0.69979257    -0.37200
N1903       N  0.12412491  0.41814787  0.75211936    -0.38300
N1904       N  0.09204758  0.38175225  0.74345375    -0.39900
C1905       C  0.00672914  0.81372078  0.10005915    -0.04900
C1906       C  0.03550839  0.80663632  0.10702119     0.09300
C1907       C  0.05565686  0.80057514  0.08990757    -0.02300
C1908       C  0.04649840  0.80126423  0.06610407    -0.00500
C1909       C  0.51771058  0.80783448  0.05881730    -0.04100
C1910       C  0.49822757  0.81436516  0.07576570     0.02900
C1911       C  0.04435031  0.80558198  0.13244781     0.09700
C1912       C  0.08535958  0.79333382  0.09689628     0.35600
C1913       C  0.46907188  0.82195345  0.06872497     0.39100
C1914       C  0.02557379  0.79739368  0.14737720    -0.04500
C1915       C  0.03290899  0.79682725  0.17147930     0.02700
C1916       C  0.05961565  0.80420892  0.18074679    -0.04100
C1917       C  0.07853576  0.81232941  0.16576543    -0.00300
C1918       C  0.07073939  0.81309454  0.14179723    -0.02900
C1919       C  0.49850125  0.78975016  0.13754689     0.36400
C1920       C  0.10573042  0.82013586  0.17509405     0.40000
C1921       C  0.01363028  0.78834932  0.18660643     0.39100
C1922       C  0.08975375  0.82169998  0.12672249     0.36000
C1923       C  0.98647163  0.82029939  0.11742029     0.36700
C1924       C  0.06683614  0.79466203  0.04881462     0.40000
N1925       N  0.49674506  0.78238129  0.19858708    -0.38100
N1926       N  0.47715029  0.78345917  0.12983322    -0.39700
N1927       N  0.12744603  0.82636825  0.18246806    -0.37400
N1928       N  0.10496377  0.82853650  0.11467303    -0.39800
N1929       N  0.10909939  0.78757297  0.10247753    -0.39600
N1930       N  0.08306132  0.78938630  0.03503461    -0.37200
N1931       N  0.44589519  0.82803346  0.06307613    -0.38300
N1932       N  0.97028750  0.82548174  0.13132842    -0.39900
C1933       C  0.51064661  0.75192664  0.27432112    -0.04900
C1934       C  0.50567616  0.74470416  0.25375605     0.09300
C1935       C  0.52433386  0.74780177  0.23361138    -0.02300
C1936       C  0.04687099  0.75826175  0.23420555    -0.00500
C1937       C  0.04961536  0.76623635  0.25412767    -0.04100
C1938       C  0.03242776  0.76268753  0.27471865     0.02900
C1939       C  0.47967033  0.73418873  0.25303433     0.09700
C1940       C  0.52012586  0.74008952  0.21269766     0.35600
C1941       C  0.03699153  0.77025434  0.29579264     0.39100
C1942       C  0.44541043  0.73745660  0.25054430    -0.04500
C1943       C  0.42066520  0.72761641  0.25002090     0.02700
C1944       C  0.42998987  0.71429403  0.25184878    -0.04100
C1945       C  0.46486641  0.71110580  0.25339123    -0.00300
C1946       C  0.48929661  0.72102054  0.25445668    -0.02900
C1947       C  0.43569088  0.75104706  0.24835481     0.36400
C1948       C  0.47636395  0.69766282  0.25381060     0.40000
C1949       C  0.38581537  0.73133448  0.24670524     0.39100
C1950       C  0.52455080  0.71769517  0.25730885     0.36000
C1951       C  0.49294163  0.74830376  0.29540816     0.36700
C1952       C  0.06483229  0.76162884  0.21309729     0.40000
N1953       N  0.35807550  0.73440753  0.24401287    -0.38100
N1954       N  0.42807187  0.76189561  0.24662391    -0.39700
N1955       N  0.48584503  0.68699045  0.25380562    -0.37400
N1956       N  0.05233167  0.71482283  0.26113808    -0.39800
N1957       N  0.51675902  0.73387933  0.19608217    -0.39600
N1958       N  0.07911550  0.76432292  0.19623123    -0.37200
N1959       N  0.04073953  0.77629025  0.31257813    -0.38300
N1960       N  0.47877573  0.74539153  0.31220630    -0.39900
C1961       C  0.31661368  0.93574949  0.10022509    -0.04900
C1962       C  0.28271280  0.93469031  0.10696236     0.09300
C1963       C  0.25759151  0.93405323  0.08961178    -0.02300
C1964       C  0.26624192  0.93462719  0.06569132    -0.00500
C1965       C  0.30031660  0.93570446  0.05879311    -0.04100
C1966       C  0.32546523  0.93611046  0.07639524     0.02900
C1967       C  0.27352581  0.93477398  0.13242229     0.09700
C1968       C  0.22267568  0.93297987  0.09646900     0.35600
C1969       C  0.36077243  0.93645863  0.07018641     0.39100
C1970       C  0.26811165  0.94671861  0.14391579    -0.04500
C1971       C  0.25969934  0.94692740  0.16780274     0.02700
C1972       C  0.25633769  0.93515852  0.18056553    -0.04100
C1973       C  0.26315919  0.92320738  0.16927390    -0.00300
C1974       C  0.27147513  0.92302847  0.14526278    -0.02900
C1975       C  0.27143447  0.95884743  0.13109732     0.36400
C1976       C  0.26093742  0.91107317  0.18214303     0.40000
C1977       C  0.25574873  0.95936274  0.17947292     0.39100
C1978       C  0.27785501  0.91075931  0.13362849     0.36000
C1979       C  0.34246785  0.93658210  0.11799581     0.36700
C1980       C  0.23976493  0.93460206  0.04833164     0.40000
N1981       N  0.25281727  0.96928108  0.18879368    -0.38100
N1982       N  0.27416547  0.96851736  0.12086508    -0.39700
N1983       N  0.25921138  0.90135883  0.19235680    -0.37400
N1984       N  0.28299253  0.90100342  0.12421731    -0.39800
N1985       N  0.19481731  0.93211099  0.10195660    -0.39600
N1986       N  0.21844385  0.93460124  0.03460959    -0.37200
N1987       N  0.38894916  0.93669415  0.06528372    -0.38300
N1988       N  0.36297931  0.93729788  0.13223683    -0.39900
C1989       C  0.33929029  0.97900980  0.23678000    -0.04900
C1990       C  0.33036684  0.99106902  0.24668632     0.09300
C1991       C  0.29834176  0.99269402  0.25682912    -0.02300
C1992       C  0.27537469  0.98224981  0.25722938    -0.00500
C1993       C  0.28441459  0.97011194  0.24754500    -0.04100
C1994       C  0.31634683  0.96859733  0.23700234     0.02900
C1995       C  0.35427367  0.00225085  0.24559781     0.09700
C1996       C  0.28911363  0.00514254  0.26687532     0.35600
C1997       C  0.32525163  0.95648840  0.22550550     0.39100
C1998       C  0.35756185  0.00942318  0.22475280    -0.04500
C1999       C  0.37869603  0.02038842  0.22393569     0.02700
C2000       C  0.39634756  0.02437766  0.24409111    -0.04100
C2001       C  0.39410082  0.01686540  0.26470121    -0.00300
C2002       C  0.37319779  0.00578700  0.26538758    -0.02900
C2003       C  0.33849538  0.00567137  0.20428975     0.36400
C2004       C  0.41163690  0.02093900  0.28559841     0.40000
C2005       C  0.38222526  0.02758935  0.20227686     0.39100
C2006       C  0.37048586  0.99816151  0.28660097     0.36000
C2007       C  0.37216300  0.97735722  0.22629095     0.36700
C2008       C  0.24280471  0.98391446  0.26810840     0.40000
N2009       N  0.38506628  0.03333521  0.18502468    -0.38100
N2010       N  0.32327311  0.00263339  0.18800843    -0.39700
N2011       N  0.42555572  0.02421220  0.30228819    -0.37400
N2012       N  0.36821453  0.99206539  0.30350573    -0.39800
N2013       N  0.28186942  0.01507384  0.27495488    -0.39600
N2014       N  0.21677372  0.98521205  0.27674149    -0.37200
N2015       N  0.33235957  0.94687059  0.21624087    -0.38300
N2016       N  0.39836787  0.97607316  0.21790787    -0.39900
C2017       C  0.15002402  0.88612252  0.26170126    -0.04900
C2018       C  0.14994513  0.87964522  0.24001620     0.09300
C2019       C  0.15785982  0.88665248  0.21952607    -0.02300
C2020       C  0.16684942  0.89991009  0.22085402    -0.00500
C2021       C  0.16973659  0.90600298  0.24272551    -0.04100
C2022       C  0.16053861  0.89919553  0.26309529     0.02900
C2023       C  0.14157581  0.86543870  0.23891132     0.09700
C2024       C  0.15810945  0.88008672  0.19720182     0.35600
C2025       C  0.16241615  0.90562270  0.28553349     0.39100
C2026       C  0.11074776  0.86138899  0.22925213    -0.04500
C2027       C  0.10206560  0.84809867  0.22931305     0.02700
C2028       C  0.12349303  0.83877748  0.23999252    -0.04100
C2029       C  0.15463453  0.84280087  0.24930597    -0.00300
C2030       C  0.16391210  0.85605385  0.24834168    -0.02900
C2031       C  0.08748405  0.87096499  0.21980632     0.36400
C2032       C  0.17622347  0.83348938  0.26118644     0.40000
C2033       C  0.07107108  0.84403719  0.21814311     0.39100
C2034       C  0.19621052  0.86009907  0.25750675     0.36000
C2035       C  0.13998714  0.87922344  0.28264102     0.36700
C2036       C  0.17419839  0.90718815  0.19979266     0.40000
N2037       N  0.04642305  0.84079317  0.20918032    -0.38100
N2038       N  0.06900072  0.87861426  0.21224305    -0.39700
N2039       N  0.19327377  0.82606452  0.27081464    -0.37400
N2040       N  0.22193265  0.86333536  0.26487646    -0.39800
N2041       N  0.15830663  0.87484335  0.17939521    -0.39600
N2042       N  0.17965322  0.91304576  0.18297612    -0.37200
N2043       N  0.16388194  0.91075317  0.30342040    -0.38300
N2044       N  0.13207009  0.87366680  0.29930612    -0.39900
C2045       C  0.29398223  0.81252399  0.59678428    -0.04900
C2046       C  0.26911773  0.81792317  0.61144849     0.09300
C2047       C  0.23962987  0.82317734  0.60146233    -0.02300
C2048       C  0.23451757  0.82265240  0.57713529    -0.00500
C2049       C  0.25835542  0.81644690  0.56256086    -0.04100
C2050       C  0.28852389  0.81166596  0.57247282     0.02900
C2051       C  0.27326163  0.81744593  0.63749638     0.09700
C2052       C  0.21407329  0.82880920  0.61635065     0.35600
C2053       C  0.31322304  0.80525709  0.55789992     0.39100
C2054       C  0.28401496  0.82852556  0.64997534    -0.04500
C2055       C  0.28894073  0.82782760  0.67438255     0.02700
C2056       C  0.28396776  0.81593608  0.68637976    -0.04100
C2057       C  0.27234189  0.80496658  0.67394181    -0.00300
C2058       C  0.26662905  0.80576833  0.64969688    -0.02900
C2059       C  0.29101191  0.84051737  0.63751670     0.36400
C2060       C  0.26628126  0.79280166  0.68616672     0.40000
C2061       C  0.30055241  0.83919408  0.68694404     0.39100
C2062       C  0.25416166  0.79451896  0.63717401     0.36000
C2063       C  0.32497429  0.80762917  0.60687039     0.36700
C2064       C  0.20485108  0.82871872  0.56705544     0.40000
N2065       N  0.30978079  0.84829087  0.69691774    -0.38100
N2066       N  0.29665513  0.85005607  0.62748034    -0.39700
N2067       N  0.26152358  0.78311558  0.69597870    -0.37400
N2068       N  0.24416492  0.78557325  0.62712583    -0.39800
N2069       N  0.19365807  0.83326875  0.62824780    -0.39600
N2070       N  0.18132876  0.83361833  0.55895268    -0.37200
N2071       N  0.33286990  0.80011612  0.54625656    -0.38300
N2072       N  0.34971665  0.80376175  0.61498370    -0.39900
C2073       C  0.28967233  0.75686906  0.52892473    -0.04900
C2074       C  0.31077797  0.75154512  0.51168820     0.09300
C2075       C  0.31204009  0.75735617  0.48941262    -0.02300
C2076       C  0.29302433  0.76865785  0.48455727    -0.00500
C2077       C  0.27277348  0.77431033  0.50204374    -0.04100
C2078       C  0.27100331  0.76831073  0.52423709     0.02900
C2079       C  0.33294275  0.74010565  0.51703932     0.09700
C2080       C  0.33360964  0.75181880  0.47164693     0.35600
C2081       C  0.25203547  0.77442305  0.54280941     0.39100
C2082       C  0.32109581  0.72734454  0.51368242    -0.04500
C2083       C  0.34325239  0.71662572  0.51569924     0.02700
C2084       C  0.37764850  0.71860328  0.52140924    -0.04100
C2085       C  0.38887562  0.73144633  0.52597418    -0.00300
C2086       C  0.36662059  0.74211621  0.52371609    -0.02900
C2087       C  0.28616375  0.72531449  0.50742153     0.36400
C2088       C  0.42335083  0.73379766  0.53301041     0.40000
C2089       C  0.33070920  0.70370026  0.51046899     0.39100
C2090       C  0.37846926  0.75527013  0.52777164     0.36000
C2091       C  0.28793785  0.75074876  0.55167713     0.36700
C2092       C  0.29450277  0.77451822  0.46155476     0.40000
N2093       N  0.32056173  0.69341583  0.50623071    -0.38100
N2094       N  0.25828619  0.72372646  0.50248617    -0.39700
N2095       N  0.45085232  0.73570826  0.53855524    -0.37400
N2096       N  0.38779654  0.76578539  0.53096724    -0.39800
N2097       N  0.35095836  0.74737694  0.45759207    -0.39600
N2098       N  0.29571134  0.77920045  0.44321714    -0.37200
N2099       N  0.23716433  0.77937200  0.55766664    -0.38300
N2100       N  0.28646929  0.74583785  0.56981161    -0.39900
C2101       C  0.16139359  0.79279371  0.34448829    -0.04900
C2102       C  0.15719230  0.80396339  0.35850169     0.09300
C2103       C  0.13695903  0.81433446  0.35022581    -0.02300
C2104       C  0.12141612  0.81362210  0.32805695    -0.00500
C2105       C  0.12541749  0.80238676  0.31402939    -0.04100
C2106       C  0.14533705  0.79192980  0.32256746     0.02900
C2107       C  0.17292353  0.80449996  0.38241805     0.09700
C2108       C  0.13215858  0.82577887  0.36460085     0.35600
C2109       C  0.14874079  0.78006224  0.30908919     0.39100
C2110       C  0.20136139  0.81231484  0.38678960    -0.04500
C2111       C  0.21582030  0.81282914  0.40937528     0.02700
C2112       C  0.20206481  0.80541425  0.42802483    -0.04100
C2113       C  0.17422605  0.79716115  0.42309793    -0.00300
C2114       C  0.15950011  0.79695291  0.40068100    -0.02900
C2115       C  0.21554075  0.81997210  0.36796322     0.36400
C2116       C  0.16072389  0.78853467  0.44080983     0.40000
C2117       C  0.24446174  0.82125407  0.41320512     0.39100
C2118       C  0.12990882  0.78906761  0.39641431     0.36000
C2119       C  0.18244013  0.78215270  0.35267618     0.36700
C2120       C  0.10249026  0.82472403  0.31936762     0.40000
N2121       N  0.26739003  0.82797071  0.41609102    -0.38100
N2122       N  0.22668418  0.82612574  0.35294570    -0.39700
N2123       N  0.14982573  0.78161783  0.45482361    -0.37400
N2124       N  0.10630840  0.78280849  0.39292918    -0.39800
N2125       N  0.12844545  0.83491509  0.37607681    -0.39600
N2126       N  0.08748795  0.83360076  0.31240294    -0.37200
N2127       N  0.15140425  0.77059249  0.29835621    -0.38300
N2128       N  0.19918539  0.77366518  0.35926177    -0.39900
C2129       C  0.06239990  0.92701179  0.65368147    -0.04900
C2130       C  0.06683817  0.93945339  0.64360918     0.09300
C2131       C  0.06553993  0.95059178  0.65792060    -0.02300
C2132       C  0.05782796  0.94936636  0.68183255    -0.00500
C2133       C  0.05147212  0.93696953  0.69169863    -0.04100
C2134       C  0.05479187  0.92576483  0.67764259     0.02900
C2135       C  0.07225534  0.94088023  0.61781870     0.09700
C2136       C  0.07172307  0.96334270  0.64788779     0.35600
C2137       C  0.04878293  0.91297416  0.68745776     0.39100
C2138       C  0.04458279  0.94243535  0.60264967    -0.04500
C2139       C  0.04959092  0.94417952  0.57843844     0.02700
C2140       C  0.08250394  0.94413608  0.56899688    -0.04100
C2141       C  0.11019076  0.94232371  0.58440827    -0.00300
C2142       C  0.10500256  0.94086223  0.60862179    -0.02900
C2143       C  0.51177933  0.94308317  0.61224123     0.36400
C2144       C  0.14422503  0.94154897  0.57551065     0.40000
C2145       C  0.02072455  0.94646446  0.56351041     0.39100
C2146       C  0.13345828  0.93934466  0.62423816     0.36000
C2147       C  0.06496788  0.91550965  0.63919206     0.36700
C2148       C  0.05643811  0.96090142  0.69633721     0.40000
N2149       N  0.99763615  0.94831360  0.55165956    -0.38100
N2150       N  0.48491346  0.94318818  0.61989610    -0.39700
N2151       N  0.17141482  0.94092515  0.56849330    -0.37400
N2152       N  0.15608973  0.93816844  0.63675533    -0.39800
N2153       N  0.07676725  0.97349729  0.63982916    -0.39600
N2154       N  0.05541124  0.97011320  0.70787941    -0.37200
N2155       N  0.53865359  0.90266688  0.69332830    -0.38300
N2156       N  0.06707710  0.90634549  0.62759503    -0.39900
C2157       C  0.02051467  0.99801552  0.52570211    -0.04900
C2158       C  0.99863346  0.00132236  0.50721688     0.09300
C2159       C  0.00225612  0.99511764  0.48546609    -0.02300
C2160       C  0.02706994  0.98546186  0.48233580    -0.00500
C2161       C  0.04796687  0.98169056  0.50109267    -0.04100
C2162       C  0.04497410  0.98814433  0.52272302     0.02900
C2163       C  0.47243631  0.01154132  0.50989046     0.09700
C2164       C  0.48179609  0.99890021  0.46585453     0.35600
C2165       C  0.06565496  0.98411191  0.54231343     0.39100
C2166       C  0.47731223  0.02416368  0.50083714    -0.04500
C2167       C  0.45069484  0.03324464  0.50065336     0.02700
C2168       C  0.41899573  0.02991200  0.51018286    -0.04100
C2169       C  0.41451804  0.01738261  0.52002287    -0.00300
C2170       C  0.44113342  0.00821652  0.51977068    -0.02900
C2171       C  0.00936974  0.02760608  0.49180474     0.36400
C2172       C  0.38269225  0.01392649  0.53057497     0.40000
C2173       C  0.45555489  0.04573595  0.48921858     0.39100
C2174       C  0.43617252  0.99523814  0.52918606     0.36000
C2175       C  0.01729980  0.00458023  0.54790293     0.36700
C2176       C  0.03119354  0.97938839  0.45974143     0.40000
N2177       N  0.45938620  0.05566123  0.47998970    -0.38100
N2178       N  0.03521943  0.03035946  0.48407420    -0.39700
N2179       N  0.35732066  0.01115717  0.53902557    -0.37400
N2180       N  0.43234828  0.98487165  0.53669558    -0.39800
N2181       N  0.46412142  0.00168619  0.45059979    -0.39600
N2182       N  0.03467362  0.97457712  0.44170594    -0.37200
N2183       N  0.08205505  0.98085546  0.55795848    -0.38300
N2184       N  0.01471760  0.00981329  0.56563266    -0.39900
C2185       C  0.14358477  0.94714378  0.34099117    -0.04900
C2186       C  0.16563872  0.94678086  0.36024362     0.09300
C2187       C  0.20048967  0.94550329  0.35617461    -0.02300
C2188       C  0.21312614  0.94439302  0.33316193    -0.00500
C2189       C  0.19096299  0.94418940  0.31374966    -0.04100
C2190       C  0.15595455  0.94579838  0.31799675     0.02900
C2191       C  0.15197762  0.94764101  0.38479667     0.09700
C2192       C  0.22342959  0.94529697  0.37581791     0.35600
C2193       C  0.13210288  0.94588833  0.29885790     0.39100
C2194       C  0.13640493  0.93673598  0.39523183    -0.04500
C2195       C  0.12351701  0.93746936  0.41818753     0.02700
C2196       C  0.12598834  0.94917208  0.43116121    -0.04100
C2197       C  0.14140990  0.96012546  0.42055346    -0.00300
C2198       C  0.15418677  0.95935857  0.39755579    -0.02900
C2199       C  0.13424082  0.92461906  0.38239506     0.36400
C2200       C  0.14368784  0.97232810  0.43311438     0.40000
C2201       C  0.10925335  0.92589735  0.42879129     0.39100
C2202       C  0.16961746  0.97067839  0.38690789     0.36000
C2203       C  0.10788018  0.94895239  0.34492606     0.36700
C2204       C  0.24916131  0.94407177  0.32957519     0.40000
N2205       N  0.09797506  0.91665042  0.43726441    -0.38100
N2206       N  0.13251167  0.91497299  0.37208969    -0.39700
N2207       N  0.14554193  0.98206406  0.44314056    -0.37400
N2208       N  0.18202580  0.97968599  0.37838378    -0.39800
N2209       N  0.24167446  0.94515958  0.39153045    -0.39600
N2210       N  0.27793637  0.94393423  0.32674229    -0.37200
N2211       N  0.11296609  0.94604821  0.28365811    -0.38300
N2212       N  0.07942091  0.95040108  0.34811414    -0.39900
C2213       C  0.18202058  0.89673367  0.48504098    -0.04900
C2214       C  0.16878819  0.88738664  0.50056971     0.09300
C2215       C  0.14576636  0.89120915  0.51786958    -0.02300
C2216       C  0.13498157  0.90425791  0.51907671    -0.00500
C2217       C  0.14723385  0.91353155  0.50297432    -0.04100
C2218       C  0.17138918  0.90982879  0.48631679     0.02900
C2219       C  0.17935972  0.87347748  0.49887474     0.09700
C2220       C  0.13276121  0.88163236  0.53412843     0.35600
C2221       C  0.18402595  0.91934073  0.46980564     0.39100
C2222       C  0.20840321  0.86919860  0.51069182    -0.04500
C2223       C  0.21862273  0.85609796  0.50911055     0.02700
C2224       C  0.19974089  0.84718556  0.49567421    -0.04100
C2225       C  0.17043337  0.85145404  0.48402430    -0.00300
C2226       C  0.16020378  0.86458905  0.48569813    -0.02900
C2227       C  0.22749154  0.87829341  0.52473208     0.36400
C2228       C  0.15154036  0.84246313  0.46966138     0.40000
C2229       C  0.24809267  0.85173772  0.52191999     0.39100
C2230       C  0.12996479  0.86900227  0.47392041     0.36000
C2231       C  0.20580300  0.89275313  0.46733261     0.36700
C2232       C  0.11119627  0.90815816  0.53690114     0.40000
N2233       N  0.27158477  0.84828399  0.53214629    -0.38100
N2234       N  0.24260737  0.88556534  0.53595812    -0.39700
N2235       N  0.13660783  0.83528124  0.45812960    -0.37400
N2236       N  0.10578026  0.87254588  0.46461509    -0.39800
N2237       N  0.12238392  0.87396751  0.54704543    -0.39600
N2238       N  0.09228212  0.91126137  0.55113577    -0.37200
N2239       N  0.19408405  0.92695391  0.45666808    -0.38300
N2240       N  0.22469984  0.88953132  0.45317783    -0.39900
O2241       O  0.58881424  0.94408289  0.46327552    -0.71200
O2242       O  0.56826760  0.94215642  0.52832224    -0.71400
O2243       O  0.55498660  0.95926914  0.49390600    -0.71300
O2244       O  0.60051845  0.92711550  0.49787549    -0.71300
O2245       O  0.64777701  0.93708300  0.50413837    -0.71200
O2246       O  0.60044702  0.96954170  0.50381524    -0.71200
O2247       O  0.61564519  0.95153713  0.53608021    -0.71200
O2248       O  0.63378514  0.95505331  0.47138666    -0.71400
V2249       V  0.57900583  0.94341751  0.49592176     1.35200
V2250       V  0.62351734  0.95316447  0.50361728     1.35200
C2251       C  0.61544865  0.94960926  0.45627007     0.78100
C2252       C  0.58916885  0.94614462  0.54339296     0.78100
C2253       C  0.56929701  0.96978870  0.49923786     0.78000
C2254       C  0.63164607  0.92656002  0.50166027     0.77900
O2255       O  0.74309209  0.81122094  0.45748803    -0.71200
O2256       O  0.77013414  0.81602525  0.52111252    -0.71400
O2257       O  0.77376523  0.79639920  0.49033842    -0.71300
O2258       O  0.74079857  0.83090830  0.48843751    -0.71300
O2259       O  0.69142590  0.82423365  0.49912844    -0.71200
O2260       O  0.72556994  0.78953579  0.50299888    -0.71200
O2261       O  0.72063747  0.80975020  0.53218528    -0.71200
O2262       O  0.69508126  0.80411805  0.46951631    -0.71400
V2263       V  0.75600687  0.81348317  0.48947385     1.35200
V2264       V  0.70913375  0.80699268  0.50061546     1.35200
C2265       C  0.71400002  0.80694930  0.45261412     0.78100
C2266       C  0.74942786  0.81392952  0.53747836     0.78100
C2267       C  0.75592129  0.78717649  0.49786601     0.78000
C2268       C  0.71090899  0.83352298  0.49398792     0.77900
O2269       O  0.73045104  0.93574593  0.28487287    -0.71200
O2270       O  0.75957424  0.93020198  0.22185426    -0.71400
O2271       O  0.77263617  0.94781281  0.25488443    -0.71300
O2272       O  0.71839282  0.91786979  0.25195345    -0.71300
O2273       O  0.67658559  0.92937229  0.23858961    -0.71200
O2274       O  0.73109935  0.95983351  0.24279914    -0.71200
O2275       O  0.71825306  0.94232636  0.20975913    -0.71200
O2276       O  0.68872429  0.94726680  0.27195333    -0.71400
V2277       V  0.74440988  0.93313663  0.25320045     1.35200
V2278       V  0.70439833  0.94445932  0.24109696     1.35200
C2279       C  0.70412369  0.94234799  0.28916260     0.78100
C2280       C  0.74421710  0.93573129  0.20510203     0.78100
C2281       C  0.76169879  0.95882481  0.24865800     0.78000
C2282       C  0.68862574  0.91842296  0.24456702     0.77900
O2283       O  0.58127583  0.80652267  0.28482276    -0.71200
O2284       O  0.54929648  0.80631836  0.22181329    -0.71400
O2285       O  0.54801416  0.78941410  0.25778418    -0.71300
O2286       O  0.58127227  0.82340887  0.24909665    -0.71300
O2287       O  0.63006969  0.81566335  0.23937764    -0.71200
O2288       O  0.59449338  0.78120684  0.24444997    -0.71200
O2289       O  0.59825459  0.79937163  0.21059870    -0.71200
O2290       O  0.62775030  0.79759476  0.27325746    -0.71400
V2291       V  0.56586131  0.80622476  0.25319058     1.35200
V2292       V  0.61171711  0.79856319  0.24219472     1.35200
C2293       C  0.61032109  0.80215184  0.28970463     0.78100
C2294       C  0.56906166  0.80323385  0.20541472     0.78100
C2295       C  0.56493897  0.77953434  0.25206741     0.78000
C2296       C  0.61115230  0.82541627  0.24287548     0.77900
O2297       O  0.74191876  0.43602932  0.77288818    -0.71200
O2298       O  0.77653117  0.43503489  0.71076458    -0.71400
O2299       O  0.77958421  0.45206038  0.74588525    -0.71300
O2300       O  0.74021788  0.41897400  0.73755100    -0.71300
O2301       O  0.69339838  0.42801998  0.72665037    -0.71200
O2302       O  0.73536704  0.46138680  0.73121271    -0.71200
O2303       O  0.72934076  0.44314382  0.69817799    -0.71200
O2304       O  0.69817318  0.44634439  0.76013406    -0.71400
V2305       V  0.75867834  0.43573078  0.74163657     1.35200
V2306       V  0.71489460  0.44458244  0.72940827     1.35200
C2307       C  0.71370206  0.44129586  0.77714111     0.78100
C2308       C  0.75817093  0.43864694  0.69386874     0.78100
C2309       C  0.76518253  0.46231646  0.73883266     0.78000
C2310       C  0.71045258  0.41775942  0.73032713     0.77900
O2311       O  0.58713709  0.30618118  0.74640925    -0.71200
O2312       O  0.55973707  0.31005760  0.68307582    -0.71400
O2313       O  0.55296316  0.29126689  0.71575788    -0.71300
O2314       O  0.59280056  0.32468299  0.71384884    -0.71300
O2315       O  0.64071390  0.31600850  0.70434840    -0.71200
O2316       O  0.59903805  0.28260519  0.70264141    -0.71200
O2317       O  0.60754515  0.30210733  0.67209201    -0.71200
O2318       O  0.63288714  0.29658927  0.73496784    -0.71400
V2319       V  0.57399280  0.30781253  0.71458807     1.35200
V2320       V  0.61911051  0.29945230  0.70374427     1.35200
C2321       C  0.61522706  0.30103894  0.75138564     0.78100
C2322       C  0.57961702  0.30716671  0.66666748     0.78100
C2323       C  0.56874498  0.28131037  0.70886877     0.78000
C2324       C  0.62353331  0.32603543  0.70918587     0.77900
O2325       O  0.58768687  0.43452328  0.94684287    -0.71200
O2326       O  0.56347859  0.43201810  0.01096366    -0.71400
O2327       O  0.55179967  0.44928427  0.97680149    -0.71300
O2328       O  0.59855764  0.41732890  0.98111379    -0.71300
O2329       O  0.64517159  0.42766319  0.98786131    -0.71200
O2330       O  0.59610699  0.45950489  0.98917469    -0.71200
O2331       O  0.61086462  0.44098614  0.02043096    -0.71200
O2332       O  0.63096487  0.44617117  0.95640906    -0.71400
V2333       V  0.57622760  0.43350843  0.97906625     1.35200
V2334       V  0.61992220  0.44342048  0.98824993     1.35200
C2335       C  0.61376345  0.44068586  0.94072092     0.78100
C2336       C  0.58343205  0.43588793  0.02668180     0.78100
C2337       C  0.56543149  0.45972189  0.98339748     0.78000
C2338       C  0.62982090  0.41705822  0.98461957     0.77900
O2339       O  0.74568549  0.30739046  0.91846562    -0.71200
O2340       O  0.78006208  0.30783565  0.98075766    -0.71400
O2341       O  0.78127152  0.29077692  0.94539542    -0.71300
O2342       O  0.74571773  0.32446466  0.95375926    -0.71300
O2343       O  0.69774620  0.31625752  0.96407008    -0.71200
O2344       O  0.73620225  0.28231119  0.96032536    -0.71200
O2345       O  0.73185416  0.30076929  0.99307917    -0.71200
O2346       O  0.70112222  0.29771404  0.93103910    -0.71400
V2347       V  0.76231511  0.30743361  0.94975079     1.35200
V2348       V  0.71757523  0.29939780  0.96179161     1.35200
C2349       C  0.71726780  0.30238969  0.91407636     0.78100
C2350       C  0.76107992  0.30475832  0.99759829     0.78100
C2351       C  0.76557831  0.28085632  0.95233919     0.78000
C2352       C  0.71598716  0.32615708  0.96061281     0.77900
O2353       O  0.69566708  0.18509654  0.50274608    -0.71200
O2354       O  0.66461486  0.18370817  0.43965761    -0.71400
O2355       O  0.69426797  0.16697946  0.46926904    -0.71300
O2356       O  0.66480426  0.20180015  0.47310333    -0.71300
O2357       O  0.71273491  0.20858241  0.45978981    -0.71200
O2358       O  0.74363201  0.17333241  0.45821501    -0.71200
O2359       O  0.71404828  0.18969879  0.42802872    -0.71200
O2360       O  0.74364141  0.19244092  0.49052281    -0.71400
V2361       V  0.68081209  0.18454550  0.47103127     1.35200
V2362       V  0.72764242  0.19089318  0.45948188     1.35200
C2363       C  0.72514085  0.18901000  0.50728018     0.78100
C2364       C  0.68441241  0.18637827  0.42304354     0.78100
C2365       C  0.72360650  0.16409764  0.46284841     0.78000
C2366       C  0.68293804  0.21106169  0.46612332     0.77900
O2367       O  0.84524034  0.06257065  0.53716975    -0.71200
O2368       O  0.87840022  0.06572749  0.47518786    -0.71400
O2369       O  0.82929997  0.07680758  0.49965114    -0.71300
O2370       O  0.89544740  0.05136817  0.51262894    -0.71300
O2371       O  0.86118943  0.03605401  0.50218249    -0.71200
O2372       O  0.79509408  0.06185658  0.48732494    -0.71200
O2373       O  0.84511704  0.05016052  0.46426869    -0.71200
O2374       O  0.81043401  0.04775784  0.52601958    -0.71400
V2375       V  0.86144219  0.06376851  0.50603655     1.35200
V2376       V  0.82856559  0.04920489  0.49529258     1.35200
C2377       C  0.82152933  0.05488145  0.54229599     0.78100
C2378       C  0.86692188  0.05862146  0.45907233     0.78100
C2379       C  0.80154446  0.07377661  0.49060227     0.78000
C2380       C  0.89024689  0.03943352  0.50882203     0.77900
O2381       O  0.70085770  0.06155611  0.71435421    -0.71200
O2382       O  0.67462780  0.06334298  0.77821550    -0.71400
O2383       O  0.70488249  0.07952848  0.74797300    -0.71300
O2384       O  0.66993758  0.04547890  0.74473602    -0.71300
O2385       O  0.71720553  0.03759359  0.75760041    -0.71200
O2386       O  0.75437587  0.07178666  0.75607757    -0.71200
O2387       O  0.72443064  0.05680554  0.78852741    -0.71200
O2388       O  0.74785332  0.05246147  0.72476974    -0.71400
V2389       V  0.68855311  0.06232759  0.74648213     1.35200
V2390       V  0.73511937  0.05479987  0.75648093     1.35200
C2391       C  0.72885423  0.05660762  0.70864405     0.78100
C2392       C  0.69518123  0.06037723  0.79426614     0.78100
C2393       C  0.73554548  0.08152320  0.75216968     0.78000
C2394       C  0.68687819  0.03582855  0.75175260     0.77900
O2395       O  0.86136528  0.18309123  0.67047900    -0.71200
O2396       O  0.89986595  0.17867599  0.73074640    -0.71400
O2397       O  0.84898788  0.16785309  0.70728406    -0.71300
O2398       O  0.91282293  0.19415462  0.69411378    -0.71300
O2399       O  0.87789611  0.20882607  0.70639651    -0.71200
O2400       O  0.81573131  0.18225064  0.72277505    -0.71200
O2401       O  0.86744928  0.19400740  0.74400689    -0.71200
O2402       O  0.82553940  0.19697166  0.68443501    -0.71400
V2403       V  0.88009278  0.18126171  0.70083607     1.35200
V2404       V  0.84726801  0.19527511  0.71401687     1.35200
C2405       C  0.83604177  0.19037320  0.66729659     0.78100
C2406       C  0.89029594  0.18563754  0.74762004     0.78100
C2407       C  0.82208560  0.17050604  0.71788666     0.78000
C2408       C  0.90679963  0.20596749  0.69875430     0.77900
O2409       O  0.88273123  0.56297093  0.03314572    -0.71200
O2410       O  0.91223637  0.56527865  0.96950562    -0.71400
O2411       O  0.87357730  0.57963526  0.99762010    -0.71300
O2412       O  0.92286523  0.54863097  0.00523122    -0.71300
O2413       O  0.88148468  0.53744596  0.99144124    -0.71200
O2414       O  0.82866656  0.56854791  0.98938097    -0.71200
O2415       O  0.86669268  0.55536817  0.95893284    -0.71200
O2416       O  0.84193008  0.55049534  0.02203041    -0.71400
V2417       V  0.89708949  0.56388134  0.00122815     1.35200
V2418       V  0.85551433  0.55313356  0.99071916     1.35200
C2419       C  0.85690868  0.55632839  0.03835733     0.78100
C2420       C  0.89351329  0.56107731  0.95323832     0.78100
C2421       C  0.84282631  0.57943436  0.99254592     0.78000
C2422       C  0.91169378  0.53780972  0.99846679     0.77900
O2423       O  0.70304647  0.68281641  0.04988626    -0.71200
O2424       O  0.66656185  0.68254721  0.98787560    -0.71400
O2425       O  0.70888118  0.66754691  0.01239363    -0.71300
O2426       O  0.65911598  0.69768852  0.02562231    -0.71300
O2427       O  0.69728934  0.70963707  0.00965638    -0.71200
O2428       O  0.75263404  0.67926337  0.00409476    -0.71200
O2429       O  0.71135277  0.69256402  0.97595665    -0.71200
O2430       O  0.74032593  0.69662538  0.03828444    -0.71400
V2431       V  0.68512065  0.68289562  0.01882263     1.35200
V2432       V  0.72473418  0.69435821  0.00736379     1.35200
C2433       C  0.72832363  0.68985733  0.05466635     0.78100
C2434       C  0.68386325  0.68711419  0.97118051     0.78100
C2435       C  0.73904642  0.66814887  0.00601948     0.78000
C2436       C  0.66797272  0.70868699  0.01813112     0.77900
O2437       O  0.71476963  0.55548065  0.20266846    -0.71200
O2438       O  0.67977950  0.55628320  0.26500750    -0.71400
O2439       O  0.71144646  0.57298717  0.23717643    -0.71300
O2440       O  0.68108965  0.53861587  0.23039003    -0.71300
O2441       O  0.72728184  0.53111503  0.24558571    -0.71200
O2442       O  0.76037849  0.56596353  0.24855140    -0.71200
O2443       O  0.72867416  0.55007481  0.27781295    -0.71200
O2444       O  0.76069122  0.54714063  0.21609643    -0.71400
V2445       V  0.69764493  0.55562943  0.23397205     1.35200
V2446       V  0.74336230  0.54864912  0.24665361     1.35200
C2447       C  0.74440641  0.55139090  0.19875809     0.78100
C2448       C  0.69925914  0.55396392  0.28208411     0.78100
C2449       C  0.74060051  0.57538944  0.24440005     0.78000
C2450       C  0.69810240  0.52904018  0.23756951     0.77900
O2451       O  0.86664202  0.67973635  0.22030821    -0.71200
O2452       O  0.89477098  0.67685383  0.28423363    -0.71400
O2453       O  0.85205546  0.66428638  0.25654647    -0.71300
O2454       O  0.91128377  0.69223758  0.24772746    -0.71300
O2455       O  0.87361525  0.70584386  0.25974654    -0.71200
O2456       O  0.81127321  0.67762552  0.26481425    -0.71200
O2457       O  0.85357618  0.68962078  0.29388704    -0.71200
O2458       O  0.82935248  0.69396003  0.23064418    -0.71400
V2459       V  0.88051164  0.67858681  0.25233832     1.35200
V2460       V  0.84278047  0.69157043  0.26200877     1.35200
C2461       C  0.84242547  0.68721961  0.21467897     0.78100
C2462       C  0.87760003  0.68234469  0.30006960     0.78100
C2463       C  0.82186199  0.66607892  0.26208118     0.78000
C2464       C  0.90356769  0.70374936  0.25308905     0.77900
O2465       O  0.01089114  0.92852431  0.79263656    -0.71200
O2466       O  0.55108370  0.92965782  0.73182909    -0.71400
O2467       O  0.55432246  0.94438220  0.77034315    -0.71300
O2468       O  0.00894680  0.91388973  0.75427811    -0.71300
O2469       O  0.96712784  0.92507368  0.74083768    -0.71200
O2470       O  0.01315029  0.95630592  0.75779803    -0.71200
O2471       O  0.00947152  0.94162130  0.71976472    -0.71200
O2472       O  0.96914584  0.93996050  0.77945516    -0.71400
V2473       V  0.53023819  0.92931730  0.76199684     1.35200
V2474       V  0.99042978  0.94053494  0.74987034     1.35200
C2475       C  0.98231770  0.93368224  0.79614066     0.78100
C2476       C  0.53682300  0.93583792  0.71535046     0.78100
C2477       C  0.54273161  0.95548657  0.76532242     0.78000
C2478       C  0.98078751  0.91404808  0.74427933     0.77900
O2479       O  0.81507755  0.81625674  0.79002181    -0.71200
O2480       O  0.78242106  0.82101774  0.72758040    -0.71400
O2481       O  0.76660675  0.80515218  0.76358241    -0.71300
O2482       O  0.82960676  0.83207408  0.75437426    -0.71300
O2483       O  0.86600124  0.81814580  0.74102437    -0.71200
O2484       O  0.80326353  0.79094556  0.75179987    -0.71200
O2485       O  0.81818899  0.80646094  0.71572252    -0.71200
O2486       O  0.85168922  0.80241575  0.77710847    -0.71400
V2487       V  0.79903377  0.81832881  0.75866563     1.35200
V2488       V  0.83402798  0.80475518  0.74669919     1.35200
C2489       C  0.83994419  0.80879065  0.79403986     0.78100
C2490       C  0.79509787  0.81450525  0.71101057     0.78100
C2491       C  0.77404417  0.79345169  0.75922032     0.78000
C2492       C  0.85828495  0.82975331  0.74609472     0.77900
O2493       O  0.82817203  0.92932219  0.95522448    -0.71200
O2494       O  0.79416210  0.93027190  0.01763845    -0.71400
O2495       O  0.78052350  0.94337707  0.97793497    -0.71300
O2496       O  0.84017610  0.91642217  0.99483337    -0.71300
O2497       O  0.87964495  0.93052692  0.00162267    -0.71200
O2498       O  0.81642062  0.95771985  0.98959748    -0.71200
O2499       O  0.83413931  0.94356445  0.02696133    -0.71200
O2500       O  0.86323353  0.94469567  0.96396015    -0.71400
V2501       V  0.81139501  0.93017591  0.98646476     1.35200
V2502       V  0.84759994  0.94391768  0.99524833     1.35200
C2503       C  0.85231555  0.93662783  0.94917344     0.78100
C2504       C  0.80952312  0.93664983  0.03326810     0.78100
C2505       C  0.78711463  0.95513224  0.98231312     0.78000
C2506       C  0.86991061  0.91881593  0.00092171     0.77900
O2507       O  0.98544458  0.80966268  0.95598775    -0.71200
O2508       O  0.52352487  0.80977422  0.01703692    -0.71400
O2509       O  0.52164076  0.79248829  0.98230475    -0.71300
O2510       O  0.98832835  0.82683715  0.99103076    -0.71300
O2511       O  0.93999263  0.81923574  0.00205864    -0.71200
O2512       O  0.97591444  0.78495231  0.99913250    -0.71200
O2513       O  0.97430173  0.80375814  0.03104410    -0.71200
O2514       O  0.94051433  0.80040568  0.96953821    -0.71400
V2515       V  0.00341352  0.80959250  0.98693875     1.35200
V2516       V  0.95850428  0.80219900  0.00004452     1.35200
C2517       C  0.95646248  0.80498093  0.95236833     0.78100
C2518       C  0.00425809  0.80718365  0.03485050     0.78100
C2519       C  0.00518871  0.78309714  0.99127136     0.78000
C2520       C  0.95885922  0.82888642  0.99814630     0.77900
O2521       O  0.96490180  0.56210066  0.70118078    -0.71200
O2522       O  0.93276479  0.56531692  0.76373319    -0.71400
O2523       O  0.97801990  0.57765426  0.73708204    -0.71300
O2524       O  0.91831711  0.54968344  0.72762772    -0.71300
O2525       O  0.95688706  0.53590938  0.73840962    -0.71200
O2526       O  0.51613471  0.56441809  0.75040211    -0.71200
O2527       O  0.97017397  0.55119956  0.77504135    -0.71200
O2528       O  0.50389281  0.54906091  0.71365284    -0.71400
V2529       V  0.94917364  0.56337741  0.73258617     1.35200
V2530       V  0.98603089  0.55032454  0.74396453     1.35200
C2531       C  0.99110350  0.55546102  0.69692424     0.78100
C2532       C  0.94620302  0.55876864  0.78006967     0.78100
C2533       C  0.00701749  0.57582966  0.74531262     0.78000
C2534       C  0.92691452  0.53808087  0.73197427     0.77900
O2535       O  0.61324922  0.68768345  0.71932538    -0.71200
O2536       O  0.64592146  0.68749336  0.78231132    -0.71400
O2537       O  0.61601830  0.67027965  0.75408644    -0.71300
O2538       O  0.64471560  0.70499151  0.74747004    -0.71300
O2539       O  0.59750685  0.71197817  0.76172106    -0.71200
O2540       O  0.56631967  0.67686254  0.76418895    -0.71200
O2541       O  0.59607618  0.69309482  0.79400605    -0.71200
O2542       O  0.56604829  0.69579482  0.73156605    -0.71400
V2543       V  0.62906549  0.68778765  0.75095644     1.35200
V2544       V  0.58239417  0.69434040  0.76254551     1.35200
C2545       C  0.58371469  0.69170058  0.71487245     0.78100
C2546       C  0.62585069  0.68986984  0.79892350     0.78100
C2547       C  0.58649229  0.66755228  0.76019226     0.78000
C2548       C  0.62692851  0.71435894  0.75451220     0.77900
O2549       O  0.62830418  0.56512137  0.53259540    -0.71200
O2550       O  0.66111370  0.56612332  0.46996136    -0.71400
O2551       O  0.62204538  0.58145880  0.49645179    -0.71300
O2552       O  0.66812021  0.54991712  0.50637981    -0.71300
O2553       O  0.62694614  0.53913772  0.49138816    -0.71200
O2554       O  0.57666147  0.57089528  0.48776139    -0.71200
O2555       O  0.61474895  0.55707545  0.45839605    -0.71200
O2556       O  0.58735159  0.55276335  0.52116111    -0.71400
V2557       V  0.64407580  0.56544183  0.50116143     1.35200
V2558       V  0.60214971  0.55513394  0.48998896     1.35200
C2559       C  0.60226644  0.55859778  0.53752610     0.78100
C2560       C  0.64284325  0.56200342  0.45344435     0.78100
C2561       C  0.59147439  0.58168817  0.49073860     0.78000
C2562       C  0.65678917  0.53921153  0.49920151     0.77900
O2563       O  0.93817184  0.68340898  0.55305840    -0.71200
O2564       O  0.90491977  0.67942916  0.49078083    -0.71400
O2565       O  0.95013974  0.66713971  0.51769456    -0.71300
O2566       O  0.89182102  0.69594447  0.52616413    -0.71300
O2567       O  0.93083067  0.70899215  0.51417536    -0.71200
O2568       O  0.48959645  0.68008915  0.50348034    -0.71200
O2569       O  0.94291495  0.69294212  0.47857560    -0.71200
O2570       O  0.97752646  0.69600888  0.53999665    -0.71400
V2571       V  0.92191759  0.68178043  0.52175322     1.35200
V2572       V  0.95916728  0.69428034  0.50953163     1.35200
C2573       C  0.96467614  0.68989235  0.55693425     0.78100
C2574       C  0.91869929  0.68543680  0.47401248     0.78100
C2575       C  0.97889313  0.66865161  0.50892933     0.78000
C2576       C  0.90088200  0.70737982  0.52095471     0.77900
O2577       O  0.83546351  0.43622248  0.44429955    -0.71200
O2578       O  0.80237548  0.43476952  0.50657931    -0.71400
O2579       O  0.79890001  0.45217389  0.47188699    -0.71300
O2580       O  0.83797254  0.41892903  0.47907371    -0.71300
O2581       O  0.88560503  0.42770447  0.48863886    -0.71200
O2582       O  0.84315952  0.46102326  0.48732136    -0.71200
O2583       O  0.85043335  0.44201729  0.51892104    -0.71200
O2584       O  0.87941135  0.44669448  0.45651724    -0.71400
V2585       V  0.81956039  0.43572621  0.47560814     1.35200
V2586       V  0.86383088  0.44424633  0.48752558     1.35200
C2587       C  0.86332378  0.44161123  0.43987213     0.78100
C2588       C  0.82135959  0.43781988  0.52340827     0.78100
C2589       C  0.81334237  0.46213534  0.47983577     0.78000
C2590       C  0.86835904  0.41758750  0.48484643     0.77900
O2591       O  0.99400581  0.31291274  0.41782422    -0.71200
O2592       O  0.52893947  0.31702849  0.47934727    -0.71400
O2593       O  0.54176820  0.30093196  0.44392758    -0.71300
O2594       O  0.98212745  0.32901535  0.45336248    -0.71300
O2595       O  0.94450357  0.31581645  0.46734139    -0.71200
O2596       O  0.00380917  0.28738234  0.45644825    -0.71200
O2597       O  0.99162309  0.30326236  0.49205258    -0.71200
O2598       O  0.95616603  0.29977550  0.43119718    -0.71400
V2599       V  0.01093087  0.31467286  0.44880859     1.35200
V2600       V  0.97470128  0.30181032  0.46139119     1.35200
C2601       C  0.96844061  0.30587892  0.41408101     0.78100
C2602       C  0.01629287  0.31061110  0.49618295     0.78100
C2603       C  0.53347403  0.28947352  0.44942054     0.78000
C2604       C  0.95373959  0.32727406  0.46248502     0.77900
O2605       O  0.99917847  0.42986003  0.27627495    -0.71200
O2606       O  0.53501166  0.42686490  0.21454589    -0.71400
O2607       O  0.54566671  0.44267488  0.25067533    -0.71300
O2608       O  0.98971091  0.41380132  0.24023897    -0.71300
O2609       O  0.95022775  0.42647715  0.22686363    -0.71200
O2610       O  0.00708024  0.45580866  0.23754102    -0.71200
O2611       O  0.99567583  0.43990463  0.20204632    -0.71200
O2612       O  0.96047400  0.44278086  0.26294357    -0.71400
V2613       V  0.01656130  0.42857098  0.24525333     1.35200
V2614       V  0.97901366  0.44099144  0.23274167     1.35200
C2615       C  0.97310354  0.43668738  0.28000916     0.78100
C2616       C  0.02147232  0.43315682  0.19787379     0.78100
C2617       C  0.03694341  0.45401554  0.24458028     0.78000
C2618       C  0.96086946  0.41511066  0.23151344     0.77900
O2619       O  0.83040616  0.30733726  0.24888384    -0.71200
O2620       O  0.80082260  0.30909435  0.18549246    -0.71400
O2621       O  0.79366764  0.29209728  0.22051581    -0.71300
O2622       O  0.83634121  0.32449278  0.21411208    -0.71300
O2623       O  0.88270162  0.31506256  0.20365643    -0.71200
O2624       O  0.83865084  0.28208947  0.20878191    -0.71200
O2625       O  0.84741055  0.29978894  0.17482483    -0.71200
O2626       O  0.87545207  0.29724286  0.23761141    -0.71400
V2627       V  0.81620715  0.30804575  0.21705258     1.35200
V2628       V  0.86017346  0.29869664  0.20647911     1.35200
C2629       C  0.85843905  0.30212681  0.25394093     0.78100
C2630       C  0.81955079  0.30482195  0.16938217     0.78100
C2631       C  0.80824431  0.28160440  0.21529320     0.78000
C2632       C  0.86655866  0.32545858  0.20790014     0.77900
O2633       O  0.60589598  0.05402152  0.04250968    -0.71200
O2634       O  0.64365928  0.05618141  0.98146715    -0.71400
O2635       O  0.61079118  0.07253041  0.00952171    -0.71300
O2636       O  0.63986344  0.03756666  0.01416906    -0.71300
O2637       O  0.59408000  0.03111321  0.99717286    -0.71200
O2638       O  0.56229565  0.06612276  0.99664350    -0.71200
O2639       O  0.59515781  0.05097350  0.96684715    -0.71200
O2640       O  0.56015378  0.04635771  0.02776260    -0.71400
V2641       V  0.62411114  0.05490725  0.01177604     1.35200
V2642       V  0.57873299  0.04871131  0.99756152     1.35200
C2643       C  0.57623855  0.04990900  0.04566479     0.78100
C2644       C  0.62528090  0.05437657  0.96373276     0.78100
C2645       C  0.58215976  0.07533561  0.00147384     0.78000
C2646       C  0.62307606  0.02851182  0.00500854     0.77900
O2647       O  0.95492028  0.17947278  0.99831573    -0.71200
O2648       O  0.93048457  0.17749174  0.93390058    -0.71400
O2649       O  0.96953146  0.16358333  0.96288961    -0.71300
O2650       O  0.91487599  0.19319808  0.96958864    -0.71300
O2651       O  0.95474398  0.20548598  0.95664959    -0.71200
O2652       O  0.51335656  0.17599681  0.95782858    -0.71200
O2653       O  0.97603056  0.18799996  0.92517263    -0.71200
O2654       O  0.49344300  0.19366783  0.98929881    -0.71400
V2655       V  0.94321391  0.17867903  0.96601591     1.35200
V2656       V  0.98364392  0.19054096  0.95744759     1.35200
C2657       C  0.97827545  0.18703169  0.00479065     0.78100
C2658       C  0.94990974  0.18212982  0.91849391     0.78100
C2659       C  0.50088253  0.16472240  0.96019648     0.78000
C2660       C  0.92439285  0.20430514  0.96305502     0.77900
O2661       O  0.93418542  0.06178789  0.20762954    -0.71200
O2662       O  0.89963550  0.06541292  0.26955435    -0.71400
O2663       O  0.93439990  0.08048501  0.23990357    -0.71300
O2664       O  0.89824260  0.04673218  0.23685276    -0.71300
O2665       O  0.94351147  0.03864346  0.25247862    -0.71200
O2666       O  0.48165138  0.07279975  0.25231665    -0.71200
O2667       O  0.94733959  0.05833682  0.28306951    -0.71200
O2668       O  0.47883235  0.05295736  0.22182686    -0.71400
V2669       V  0.91748568  0.06342459  0.23874953     1.35200
V2670       V  0.96212873  0.05578817  0.25219556     1.35200
C2671       C  0.96287586  0.05670165  0.20438073     0.78100
C2672       C  0.91827372  0.06274752  0.28689220     0.78100
C2673       C  0.96414967  0.08248432  0.24645462     0.78000
C2674       C  0.91415859  0.03697365  0.24445641     0.77900
O2675       O  0.60023392  0.18573618  0.17351165    -0.71200
O2676       O  0.63068504  0.18210299  0.23625152    -0.71400
O2677       O  0.58572524  0.16999529  0.20911605    -0.71300
O2678       O  0.64619770  0.19781432  0.20084287    -0.71300
O2679       O  0.60755885  0.21167374  0.21088586    -0.71200
O2680       O  0.54775500  0.18339455  0.22209729    -0.71200
O2681       O  0.59362136  0.19640580  0.24711895    -0.71200
O2682       O  0.56071702  0.19875813  0.18517862    -0.71400
V2683       V  0.61495612  0.18421417  0.20504334     1.35200
V2684       V  0.57808783  0.19732569  0.21595339     1.35200
C2685       C  0.57424089  0.19241090  0.16882760     0.78100
C2686       C  0.61762007  0.18885365  0.25230552     0.78100
C2687       C  0.55696432  0.17186365  0.21760583     0.78000
C2688       C  0.63788035  0.20936801  0.20563329     0.77900
C2689       C  0.52207678  0.11160366  0.23642349    -0.04900
C2690       C  0.49942626  0.12207337  0.23944620     0.09300
C2691       C  0.46647206  0.11963138  0.24708751    -0.02300
C2692       C  0.45581030  0.10674792  0.25101293    -0.00500
C2693       C  0.47763908  0.09611870  0.24626736    -0.04100
C2694       C  0.51114799  0.09864943  0.23947587     0.02900
C2695       C  0.51009074  0.13565894  0.23381794     0.09700
C2696       C  0.44325417  0.13040357  0.25036115     0.35600
C2697       C  0.03420068  0.08806269  0.23522294     0.39100
C2698       C  0.51354501  0.13954991  0.21034017    -0.04500
C2699       C  0.52649686  0.15194067  0.20493735     0.02700
C2700       C  0.53583519  0.16049465  0.22298129    -0.04100
C2701       C  0.53013916  0.15698038  0.24641236    -0.00300
C2702       C  0.51745289  0.14453531  0.25183474    -0.02900
C2703       C  0.50456414  0.13065206  0.19177317     0.36400
C2704       C  0.53910354  0.16587677  0.26498369     0.40000
C2705       C  0.53060162  0.15586605  0.18080757     0.39100
C2706       C  0.01177990  0.14069228  0.27601543     0.36000
C2707       C  0.55654301  0.11420421  0.22973413     0.36700
C2708       C  0.42233891  0.10452292  0.26017417     0.40000
N2709       N  0.53375637  0.15900334  0.16156344    -0.38100
N2710       N  0.49751608  0.12352014  0.17699375    -0.39700
N2711       N  0.04546126  0.17289450  0.27997000    -0.37400
N2712       N  0.00782404  0.13763347  0.29522360    -0.39800
N2713       N  0.42482213  0.13901288  0.25297605    -0.39600
N2714       N  0.39566059  0.10276995  0.26749960    -0.37200
N2715       N  0.05276520  0.07963558  0.23144469    -0.38300
N2716       N  0.58402472  0.11631154  0.22441659    -0.39900
C2717       C  0.50708247  0.17760883  0.06616432    -0.04900
C2718       C  0.51457263  0.18987785  0.07589001     0.09300
C2719       C  0.50876198  0.20126423  0.06267199    -0.02300
C2720       C  0.49645006  0.20040441  0.03963939    -0.00500
C2721       C  0.48911150  0.18811034  0.02969703    -0.04100
C2722       C  0.99423006  0.17659352  0.04320690     0.02900
C2723       C  0.52980168  0.19080646  0.09978988     0.09700
C2724       C  0.51577566  0.21389670  0.07282269     0.35600
C2725       C  0.98860474  0.16385273  0.03306278     0.39100
C2726       C  0.56492539  0.19194373  0.10243119    -0.04500
C2727       C  0.57948751  0.19265480  0.12486720     0.02700
C2728       C  0.55897789  0.19232473  0.14497466    -0.04100
C2729       C  0.52361639  0.19136559  0.14219387    -0.00300
C2730       C  0.50920438  0.19061465  0.11972095    -0.02900
C2731       C  0.08564478  0.19245474  0.08207384     0.36400
C2732       C  0.50190658  0.19057942  0.16241795     0.40000
C2733       C  0.61558548  0.19403556  0.12713536     0.39100
C2734       C  0.47306711  0.18958774  0.11703126     0.36000
C2735       C  0.51344460  0.16587730  0.07963017     0.36700
C2736       C  0.49134240  0.21225827  0.02628125     0.40000
N2737       N  0.14383994  0.19522788  0.12916307    -0.38100
N2738       N  0.10238149  0.19292595  0.06564588    -0.39700
N2739       N  0.48455298  0.18992502  0.17852076    -0.37400
N2740       N  0.44424481  0.18876518  0.11485790    -0.39800
N2741       N  0.52137303  0.22395285  0.08099145    -0.39600
N2742       N  0.48756498  0.22178170  0.01575333    -0.37200
N2743       N  0.98426943  0.15368893  0.02493826    -0.38300
N2744       N  0.51860470  0.15653249  0.09040452    -0.39900
C2745       C  0.50942301  0.04875605  0.09429490    -0.04900
C2746       C  0.52859347  0.05166740  0.11420054     0.09300
C2747       C  0.56362705  0.05314770  0.11209288    -0.02300
C2748       C  0.57943537  0.05198054  0.09010466    -0.00500
C2749       C  0.56010945  0.04974222  0.06957778    -0.04100
C2750       C  0.52476023  0.04791004  0.07215242     0.02900
C2751       C  0.51161378  0.05303251  0.13745633     0.09700
C2752       C  0.58343750  0.05589926  0.13272495     0.35600
C2753       C  0.50338690  0.04531261  0.05221956     0.39100
C2754       C  0.50543461  0.04191292  0.15130901    -0.04500
C2755       C  0.48846777  0.04310761  0.17279079     0.02700
C2756       C  0.97772445  0.05537885  0.18072330    -0.04100
C2757       C  0.98332229  0.06652908  0.16675849    -0.00300
C2758       C  0.99999691  0.06536833  0.14512998    -0.02900
C2759       C  0.51667533  0.02922827  0.14339984     0.36400
C2760       C  0.97336773  0.07928738  0.17515371     0.40000
C2761       C  0.48182485  0.03157433  0.18669419     0.39100
C2762       C  0.00594684  0.07684924  0.13097444     0.36000
C2763       C  0.47353955  0.04666014  0.09671859     0.36700
C2764       C  0.61577238  0.05282450  0.08907189     0.40000
N2765       N  0.47644312  0.02239130  0.19780953    -0.38100
N2766       N  0.52569402  0.01912323  0.13702834    -0.39700
N2767       N  0.96555636  0.08945664  0.18195427    -0.37400
N2768       N  0.01075217  0.08600996  0.11967544    -0.39800
N2769       N  0.59919081  0.05812499  0.14918947    -0.39600
N2770       N  0.64478108  0.05344390  0.08841624    -0.37200
N2771       N  0.48605190  0.04322089  0.03647095    -0.38300
N2772       N  0.44499341  0.04493028  0.09880005    -0.39900
C2773       C  0.53205131  0.10664067  0.99299750    -0.04900
C2774       C  0.55561956  0.11444381  0.98103307     0.09300
C2775       C  0.58819711  0.10963255  0.97683570    -0.02300
C2776       C  0.59726525  0.09706639  0.98448831    -0.00500
C2777       C  0.57341264  0.08905904  0.99593821    -0.04100
C2778       C  0.54084227  0.09395095  0.00031528     0.02900
C2779       C  0.54603610  0.12778451  0.97291549     0.09700
C2780       C  0.61217868  0.11753920  0.96411956     0.35600
C2781       C  0.51661333  0.08606800  0.01283287     0.39100
C2782       C  0.05766969  0.13857863  0.98477286    -0.04500
C2783       C  0.04586806  0.15111898  0.97881656     0.02700
C2784       C  0.52148781  0.15275816  0.96122294    -0.04100
C2785       C  0.51135059  0.14177861  0.94821501    -0.00300
C2786       C  0.52377145  0.12932479  0.95395774    -0.02900
C2787       C  0.08072023  0.13693175  0.00416267     0.36400
C2788       C  0.48718915  0.14326050  0.92940204     0.40000
C2789       C  0.05707586  0.16234103  0.99198174     0.39100
C2790       C  0.51260526  0.11801484  0.94099993     0.36000
C2791       C  0.49866901  0.11169043  0.99769728     0.36700
C2792       C  0.63082660  0.09224486  0.97951771     0.40000
N2793       N  0.06605863  0.17128594  0.00248811    -0.38100
N2794       N  0.09914012  0.13557304  0.01959901    -0.39700
N2795       N  0.46784573  0.14445488  0.91446859    -0.37400
N2796       N  0.50355862  0.10898520  0.93075440    -0.39800
N2797       N  0.63130852  0.12385796  0.95402460    -0.39600
N2798       N  0.65761838  0.08844752  0.97558338    -0.37200
N2799       N  0.49733056  0.07978170  0.02286002    -0.38300
N2800       N  0.47201489  0.11572436  0.00131399    -0.39900
C2801       C  0.74227925  0.25689460  0.23291766    -0.04900
C2802       C  0.74144736  0.24885585  0.21309545     0.09300
C2803       C  0.76543989  0.25053395  0.19532207    -0.02300
C2804       C  0.78896196  0.26076583  0.19663768    -0.00500
C2805       C  0.78869770  0.26930686  0.21592647    -0.04100
C2806       C  0.76580115  0.26708192  0.23436550     0.02900
C2807       C  0.71482797  0.23871774  0.21084368     0.09700
C2808       C  0.76530505  0.24187620  0.17541279     0.35600
C2809       C  0.76602027  0.27540237  0.25477054     0.39100
C2810       C  0.68461891  0.24156577  0.19890994    -0.04500
C2811       C  0.65923056  0.23203902  0.19709993     0.02700
C2812       C  0.66411076  0.21958930  0.20711470    -0.04100
C2813       C  0.69420938  0.21690250  0.21953870    -0.00300
C2814       C  0.71945860  0.22641978  0.22126632    -0.02900
C2815       C  0.67967385  0.25437042  0.18868961     0.36400
C2816       C  0.69875008  0.20456910  0.23163273     0.40000
C2817       C  0.62838722  0.23500275  0.18467523     0.39100
C2818       C  0.75011444  0.22365834  0.23411676     0.36000
C2819       C  0.71840239  0.25480340  0.25160939     0.36700
C2820       C  0.81164037  0.26303730  0.17732752     0.40000
N2821       N  0.60373452  0.23738524  0.17480723    -0.38100
N2822       N  0.67585254  0.26460976  0.18059373    -0.39700
N2823       N  0.70255276  0.19479669  0.24141539    -0.37400
N2824       N  0.77451483  0.22148532  0.24442588    -0.39800
N2825       N  0.76515195  0.23493225  0.15958578    -0.39600
N2826       N  0.82957814  0.26489760  0.16183912    -0.37200
N2827       N  0.76607085  0.28207387  0.27097280    -0.38300
N2828       N  0.69936996  0.25307830  0.26650570    -0.39900
C2829       C  0.92094643  0.38211006  0.23987565    -0.04900
C2830       C  0.91769481  0.37796471  0.21655613     0.09300
C2831       C  0.92472248  0.38673926  0.19820598    -0.02300
C2832       C  0.93592587  0.39945721  0.20316749    -0.00500
C2833       C  0.94124224  0.40327876  0.22645799    -0.04100
C2834       C  0.93320612  0.39465969  0.24480528     0.02900
C2835       C  0.90623007  0.36439842  0.21147538     0.09700
C2836       C  0.92136626  0.38253502  0.17422912     0.35600
C2837       C  0.93791606  0.39869833  0.26879352     0.39100
C2838       C  0.87332930  0.36226623  0.20332174    -0.04500
C2839       C  0.86152957  0.34948464  0.20016511     0.02700
C2840       C  0.88193161  0.33865009  0.20640170    -0.04100
C2841       C  0.91547909  0.34080989  0.21359246    -0.00300
C2842       C  0.92765495  0.35365648  0.21583578    -0.02900
C2843       C  0.85109070  0.37326197  0.19908448     0.36400
C2844       C  0.93702855  0.32993445  0.21992910     0.40000
C2845       C  0.82820113  0.34756861  0.19044229     0.39100
C2846       C  0.96197103  0.35586227  0.22337781     0.36000
C2847       C  0.91198180  0.37338515  0.25878785     0.36700
C2848       C  0.94345644  0.40840216  0.18429155     0.40000
N2849       N  0.80164113  0.34605119  0.18270118    -0.38100
N2850       N  0.83340246  0.38204645  0.19576500    -0.39700
N2851       N  0.95425043  0.32126994  0.22501923    -0.37400
N2852       N  0.98929782  0.35762824  0.22947794    -0.39800
N2853       N  0.91859615  0.37916407  0.15511573    -0.39600
N2854       N  0.94933228  0.41555234  0.16922760    -0.37200
N2855       N  0.94173361  0.40194274  0.28789523    -0.38300
N2856       N  0.90483890  0.36639053  0.27381734    -0.39900
C2857       C  0.90239105  0.30137705  0.36602649    -0.04900
C2858       C  0.92144964  0.30340421  0.34572572     0.09300
C2859       C  0.95606907  0.30608432  0.34765349    -0.02300
C2860       C  0.97164585  0.30670856  0.36979474    -0.00500
C2861       C  0.95246653  0.30496466  0.39039267    -0.04100
C2862       C  0.91747277  0.30243305  0.38820572     0.02900
C2863       C  0.90467110  0.30296094  0.32229888     0.09700
C2864       C  0.97563725  0.30823450  0.32672027     0.35600
C2865       C  0.89623373  0.30145265  0.40864383     0.39100
C2866       C  0.88640796  0.31384667  0.31403879    -0.04500
C2867       C  0.87016836  0.31343556  0.29214445     0.02700
C2868       C  0.87222961  0.30210580  0.27817870    -0.04100
C2869       C  0.89028038  0.29114015  0.28671085    -0.00300
C2870       C  0.90639076  0.29159216  0.30863602    -0.02900
C2871       C  0.88504521  0.32560769  0.32795492     0.36400
C2872       C  0.89196672  0.27925740  0.27312744     0.40000
C2873       C  0.85274488  0.32494189  0.28362640     0.39100
C2874       C  0.92494434  0.28036010  0.31717842     0.36000
C2875       C  0.86703294  0.29814690  0.36399528     0.36700
C2876       C  0.00757728  0.30889426  0.37111304     0.40000
N2877       N  0.83887631  0.33413530  0.27685497    -0.38100
N2878       N  0.88409928  0.33497192  0.33910558    -0.39700
N2879       N  0.89337801  0.26978695  0.26228371    -0.37400
N2880       N  0.93985203  0.27142712  0.32399879    -0.39800
N2881       N  0.99118033  0.30994843  0.30998923    -0.39600
N2882       N  0.03625423  0.31064029  0.37208102    -0.37200
N2883       N  0.87914505  0.30072123  0.42487251    -0.38300
N2884       N  0.83889878  0.29550530  0.36229535    -0.39900
C2885       C  0.90319122  0.45249111  0.38251651    -0.04900
C2886       C  0.90878245  0.44040692  0.37145274     0.09300
C2887       C  0.89850020  0.42881211  0.38258615    -0.02300
C2888       C  0.88305392  0.42925607  0.40469352    -0.00500
C2889       C  0.87782916  0.44133317  0.41596782    -0.04100
C2890       C  0.88813110  0.45295019  0.40480611     0.02900
C2891       C  0.92551652  0.43979307  0.34801872     0.09700
C2892       C  0.90412197  0.41638155  0.37127421     0.35600
C2893       C  0.88279061  0.46539667  0.41612076     0.39100
C2894       C  0.96070340  0.43839597  0.34634400    -0.04500
C2895       C  0.97636374  0.43721155  0.32432291     0.02700
C2896       C  0.95689833  0.43749012  0.30360488    -0.04100
C2897       C  0.92141434  0.43876094  0.30550876    -0.00300
C2898       C  0.90599625  0.44002600  0.32753896    -0.02900
C2899       C  0.98079061  0.43825387  0.36743990     0.36400
C2900       C  0.90025670  0.43823219  0.28491840     0.40000
C2901       C  0.01260076  0.43595071  0.32316867     0.39100
C2902       C  0.86982726  0.44153254  0.32921837     0.36000
C2903       C  0.91277577  0.46444915  0.37082923     0.36700
C2904       C  0.87391739  0.41718910  0.41626444     0.40000
N2905       N  0.54154374  0.43535313  0.32230361    -0.38100
N2906       N  0.99667856  0.43818286  0.38433535    -0.39700
N2907       N  0.88331566  0.43778489  0.26854026    -0.37400
N2908       N  0.84099643  0.44277759  0.33059153    -0.39800
N2909       N  0.90864896  0.40648319  0.36219680    -0.39600
N2910       N  0.86674315  0.40754593  0.42546846    -0.37200
N2911       N  0.87855250  0.47531204  0.42521161    -0.38300
N2912       N  0.92029451  0.47398748  0.36141515    -0.39900
C2913       C  0.87313454  0.38117636  0.49429643    -0.04900
C2914       C  0.90328299  0.37812290  0.48273691     0.09300
C2915       C  0.92430537  0.38819847  0.47456480    -0.02300
C2916       C  0.91390660  0.40129209  0.47630853    -0.00500
C2917       C  0.88270757  0.40431515  0.48668298    -0.04100
C2918       C  0.86319473  0.39425130  0.49670146     0.02900
C2919       C  0.91212143  0.36426655  0.47811079     0.09700
C2920       C  0.95616331  0.38501812  0.46371809     0.35600
C2921       C  0.83283369  0.39732955  0.50956061     0.39100
C2922       C  0.90846973  0.35920637  0.45540713    -0.04500
C2923       C  0.91990300  0.34653793  0.45042828     0.02700
C2924       C  0.93334034  0.33872030  0.46838871    -0.04100
C2925       C  0.93357940  0.34327099  0.49151806    -0.00300
C2926       C  0.92426088  0.35622331  0.49624677    -0.02900
C2927       C  0.89378758  0.36718166  0.43710667     0.36400
C2928       C  0.94436417  0.33474593  0.51031030     0.40000
C2929       C  0.91846724  0.34158864  0.42680493     0.39100
C2930       C  0.92886766  0.36148782  0.51943823     0.36000
C2931       C  0.85171569  0.37081716  0.50291543     0.36700
C2932       C  0.93435937  0.41150114  0.46613610     0.40000
N2933       N  0.91733546  0.33761333  0.40798554    -0.38100
N2934       N  0.88202380  0.37357301  0.42257080    -0.39700
N2935       N  0.45289353  0.32811255  0.52531737    -0.37400
N2936       N  0.93282491  0.36572636  0.53788403    -0.39800
N2937       N  0.98154154  0.38245126  0.45504845    -0.39600
N2938       N  0.95062991  0.41963658  0.45795866    -0.37200
N2939       N  0.80871740  0.39979477  0.51989219    -0.38300
N2940       N  0.83468573  0.36253191  0.50974301    -0.39900
C2941       C  0.73630441  0.51824569  0.49580232    -0.04900
C2942       C  0.72294726  0.50574669  0.49230454     0.09300
C2943       C  0.68785891  0.50393623  0.49247612    -0.02300
C2944       C  0.66603068  0.51470381  0.49543683    -0.00500
C2945       C  0.67926715  0.52742168  0.49861476    -0.04100
C2946       C  0.71488351  0.52895016  0.49958190     0.02900
C2947       C  0.74643456  0.49452475  0.48886426     0.09700
C2948       C  0.67427893  0.49094241  0.48952519     0.35600
C2949       C  0.73037413  0.54154701  0.50364449     0.39100
C2950       C  0.76537105  0.48974611  0.50788011    -0.04500
C2951       C  0.78970965  0.47995606  0.50445801     0.02700
C2952       C  0.79401857  0.47439484  0.48217295    -0.04100
C2953       C  0.77540565  0.47930203  0.46308528    -0.00300
C2954       C  0.75189708  0.48943357  0.46638483    -0.02900
C2955       C  0.75923906  0.49476090  0.53109078     0.36400
C2956       C  0.78105840  0.47409723  0.43996176     0.40000
C2957       C  0.80937746  0.47531160  0.52413207     0.39100
C2958       C  0.73330361  0.49464049  0.44668394     0.36000
C2959       C  0.77245826  0.52013414  0.49489642     0.36700
C2960       C  0.63006059  0.51250273  0.49557830     0.40000
N2961       N  0.82507406  0.47169129  0.53986951    -0.38100
N2962       N  0.75421053  0.49875764  0.54958128    -0.39700
N2963       N  0.78577707  0.46995851  0.42152999    -0.37400
N2964       N  0.71837037  0.49878779  0.43100442    -0.39800
N2965       N  0.66349091  0.48057547  0.48712302    -0.39600
N2966       N  0.60138175  0.51067355  0.49565793    -0.37200
N2967       N  0.74299666  0.55152932  0.50683133    -0.38300
N2968       N  0.80124196  0.52161080  0.49410982    -0.39900
C2969       C  0.52823986  0.63744151  0.51815079    -0.04900
C2970       C  0.53168605  0.63298988  0.49503890     0.09300
C2971       C  0.02089873  0.64102320  0.47677279    -0.02300
C2972       C  0.00621398  0.65327116  0.48118129    -0.00500
C2973       C  0.00005690  0.65717305  0.50432891    -0.04100
C2974       C  0.51205513  0.64937400  0.52259065     0.02900
C2975       C  0.54544075  0.61968463  0.49069715     0.09700
C2976       C  0.02442044  0.63645381  0.45302848     0.35600
C2977       C  0.50653329  0.65353667  0.54641183     0.39100
C2978       C  0.52586694  0.60862920  0.49598481    -0.04500
C2979       C  0.54019285  0.59606312  0.49501544     0.02700
C2980       C  0.57410529  0.59448636  0.48819901    -0.04100
C2981       C  0.59258782  0.60556731  0.48080266    -0.00300
C2982       C  0.57851260  0.61812054  0.48255014    -0.02900
C2983       C  0.99088370  0.61019035  0.50307084     0.36400
C2984       C  0.62611359  0.60414351  0.47118954     0.40000
C2985       C  0.52033710  0.58492830  0.50216303     0.39100
C2986       C  0.59841736  0.62948659  0.47664867     0.36000
C2987       C  0.54108831  0.62965006  0.53734838     0.36700
C2988       C  0.99651429  0.66165603  0.46190689     0.40000
N2989       N  0.00455058  0.57600530  0.50756536    -0.38100
N2990       N  0.96311423  0.61148436  0.50853504    -0.39700
N2991       N  0.65280829  0.60302767  0.46348751    -0.37400
N2992       N  0.61422540  0.63855759  0.47191422    -0.39800
N2993       N  0.02718756  0.63277716  0.43410135    -0.39600
N2994       N  0.98913655  0.66836207  0.44647091    -0.37200
N2995       N  0.50200636  0.65680723  0.56541540    -0.38300
N2996       N  0.55147242  0.62343955  0.55261792    -0.39900
C2997       C  0.53478809  0.68867482  0.60355507    -0.04900
C2998       C  0.51613426  0.68967179  0.62433112     0.09300
C2999       C  0.97941979  0.69044140  0.62325100    -0.02300
C3000       C  0.96287248  0.69047048  0.60133097    -0.00500
C3001       C  0.98162366  0.68985164  0.58040310    -0.04100
C3002       C  0.51841283  0.68879332  0.58165150     0.02900
C3003       C  0.53402784  0.69016266  0.64756140     0.09700
C3004       C  0.96000208  0.69111103  0.64454265     0.35600
C3005       C  0.53838214  0.68730940  0.56070688     0.39100
C3006       C  0.53972364  0.70224562  0.65861345    -0.04500
C3007       C  0.55692405  0.70278628  0.68019863     0.02700
C3008       C  0.56900101  0.69125972  0.69091275    -0.04100
C3009       C  0.56354501  0.67916865  0.67978063    -0.00300
C3010       C  0.54604252  0.67862638  0.65828384    -0.02900
C3011       C  0.52769466  0.71414849  0.64774317     0.36400
C3012       C  0.57456982  0.66720276  0.69097943     0.40000
C3013       C  0.56249225  0.71525758  0.69135163     0.39100
C3014       C  0.53964986  0.66614918  0.64740367     0.36000
C3015       C  0.57105667  0.68742857  0.60478190     0.36700
C3016       C  0.92656590  0.69147606  0.60041463     0.40000
N3017       N  0.56700182  0.72518608  0.70030850    -0.38100
N3018       N  0.51798144  0.72362785  0.63904563    -0.39700
N3019       N  0.58328299  0.65765181  0.69993716    -0.37400
N3020       N  0.53444979  0.65619436  0.63872842    -0.39800
N3021       N  0.94458410  0.69163380  0.66157336    -0.39600
N3022       N  0.89757011  0.69226365  0.59971716    -0.37200
N3023       N  0.55434137  0.68609304  0.54403184    -0.38300
N3024       N  0.59996700  0.68635103  0.60583613    -0.39900
C3025       C  0.55947437  0.55637137  0.65025605    -0.04900
C3026       C  0.54041365  0.55637748  0.62956025     0.09300
C3027       C  0.00523075  0.55628086  0.63075595    -0.02300
C3028       C  0.98886175  0.55601591  0.65263033    -0.00500
C3029       C  0.50774511  0.55575941  0.67367450    -0.04100
C3030       C  0.54336647  0.55612870  0.67215731     0.02900
C3031       C  0.55770928  0.55690290  0.60629888     0.09700
C3032       C  0.98566440  0.55636611  0.60943122     0.35600
C3033       C  0.56372387  0.55695901  0.69309890     0.39100
C3034       C  0.56481543  0.54532031  0.59405755    -0.04500
C3035       C  0.57988522  0.54584665  0.57179482     0.02700
C3036       C  0.58872735  0.55797716  0.56175397    -0.04100
C3037       C  0.58277343  0.56954640  0.57447594    -0.00300
C3038       C  0.56715146  0.56899861  0.59656347    -0.02900
C3039       C  0.05716078  0.53290937  0.60445651     0.36400
C3040       C  0.59145348  0.58208908  0.56448171     0.40000
C3041       C  0.58694258  0.53384498  0.55943400     0.39100
C3042       C  0.56043796  0.58090557  0.60928431     0.36000
C3043       C  0.59585626  0.55669071  0.64894332     0.36700
C3044       C  0.95247356  0.55585180  0.65348655     0.40000
N3045       N  0.59258636  0.52427315  0.54956945    -0.38100
N3046       N  0.05100489  0.52295607  0.61293046    -0.39700
N3047       N  0.59840689  0.59209367  0.55651228    -0.37400
N3048       N  0.55505698  0.59037570  0.61952146    -0.39800
N3049       N  0.97017700  0.55639680  0.59235700    -0.39600
N3050       N  0.92341887  0.55577908  0.65411781    -0.37200
N3051       N  0.57998701  0.55769552  0.70976857    -0.38300
N3052       N  0.62487023  0.55694354  0.64785291    -0.39900
C3053       C  0.54822908  0.60425020  0.77568253    -0.04900
C3054       C  0.55362548  0.61265960  0.75652149     0.09300
C3055       C  0.54970089  0.60790355  0.73364281    -0.02300
C3056       C  0.53676026  0.59534340  0.72997936    -0.00500
C3057       C  0.52873677  0.58732045  0.74916868    -0.04100
C3058       C  0.53620804  0.59150199  0.77196448     0.02900
C3059       C  0.56094780  0.62679095  0.76013387     0.09700
C3060       C  0.55763849  0.61618136  0.71386828     0.35600
C3061       C  0.52949862  0.58300307  0.79162972     0.39100
C3062       C  0.59275987  0.63082678  0.76803772    -0.04500
C3063       C  0.60007735  0.64420555  0.76981834     0.02700
C3064       C  0.57639355  0.65366217  0.76214115    -0.04100
C3065       C  0.54429002  0.64958299  0.75463826    -0.00300
C3066       C  0.53633526  0.63621799  0.75428250    -0.02900
C3067       C  0.61840072  0.62120736  0.77352639     0.36400
C3068       C  0.01962466  0.65886459  0.74549518     0.40000
C3069       C  0.63197958  0.64817572  0.77979778     0.39100
C3070       C  0.00279943  0.63194655  0.74677211     0.36000
C3071       C  0.55350042  0.60891177  0.79920960     0.36700
C3072       C  0.03107595  0.59074074  0.70635278     0.40000
N3073       N  0.65735186  0.65133386  0.78784452    -0.38100
N3074       N  0.63885978  0.61353419  0.77785722    -0.39700
N3075       N  0.00054504  0.66633569  0.73807377    -0.37400
N3076       N  0.97640587  0.62860312  0.74084386    -0.39800
N3077       N  0.56384370  0.62282613  0.69814645    -0.39600
N3078       N  0.02631457  0.58725662  0.68749323    -0.37200
N3079       N  0.52424525  0.57620144  0.80730860    -0.38300
N3080       N  0.55793242  0.61262063  0.81797044    -0.39900
C3081       C  0.70088793  0.97160611  0.98579922    -0.04900
C3082       C  0.71003906  0.98479945  0.98710488     0.09300
C3083       C  0.74379505  0.98842603  0.98378371    -0.02300
C3084       C  0.76875803  0.97882243  0.98039769    -0.00500
C3085       C  0.76022515  0.96540263  0.98086638    -0.04100
C3086       C  0.72564080  0.96193472  0.98244916     0.02900
C3087       C  0.68408131  0.99492674  0.99227892     0.09700
C3088       C  0.75287201  0.00210686  0.98433967     0.35600
C3089       C  0.71490000  0.94844997  0.98117649     0.39100
C3090       C  0.67986244  0.99943005  0.01527329    -0.04500
C3091       C  0.65744018  0.00975404  0.01990346     0.02700
C3092       C  0.63908568  0.01560467  0.00155398    -0.04100
C3093       C  0.64144550  0.01039226  0.97881792    -0.00300
C3094       C  0.66426211  0.00019500  0.97417037    -0.02900
C3095       C  0.69948491  0.99369838  0.03401130     0.36400
C3096       C  0.62219270  0.01606349  0.95981705     0.40000
C3097       C  0.65332721  0.01442831  0.04354382     0.39100
C3098       C  0.66868346  0.99555081  0.95054044     0.36000
C3099       C  0.66590709  0.96798135  0.98864201     0.36700
C3100       C  0.80303331  0.98288779  0.97601967     0.40000
N3101       N  0.64987789  0.01814706  0.06239240    -0.38100
N3102       N  0.71526599  0.98912714  0.04890095    -0.39700
N3103       N  0.60687817  0.02055541  0.94461686    -0.37400
N3104       N  0.67239560  0.99187915  0.93168882    -0.39800
N3105       N  0.76003060  0.01301842  0.98488840    -0.39600
N3106       N  0.83031912  0.98619420  0.97243556    -0.37200
N3107       N  0.70602254  0.93774538  0.98000762    -0.38300
N3108       N  0.63801063  0.96511506  0.99094785    -0.39900
C3109       C  0.89589034  0.88655941  0.02574977    -0.04900
C3110       C  0.91952779  0.88265272  0.00895255     0.09300
C3111       C  0.93193455  0.89172520  0.99260530    -0.02300
C3112       C  0.91853079  0.90442922  0.99183139    -0.00500
C3113       C  0.89193350  0.90779887  0.00682775    -0.04100
C3114       C  0.88166677  0.89907262  0.02446739     0.02900
C3115       C  0.92898265  0.86868797  0.00717280     0.09700
C3116       C  0.95691523  0.88771306  0.97571717     0.35600
C3117       C  0.85520095  0.90273235  0.04054526     0.39100
C3118       C  0.90718664  0.85993511  0.99578150    -0.04500
C3119       C  0.91643320  0.84677406  0.99328441     0.02700
C3120       C  0.94748383  0.84236634  0.00225492    -0.04100
C3121       C  0.96856492  0.85105160  0.01456794    -0.00300
C3122       C  0.95941687  0.86422278  0.01681102    -0.02900
C3123       C  0.87544943  0.86455690  0.98634882     0.36400
C3124       C  0.99919389  0.84637807  0.02558816     0.40000
C3125       C  0.89456108  0.83792265  0.98076964     0.39100
C3126       C  0.98126659  0.87322881  0.02896682     0.36000
C3127       C  0.88505626  0.87745541  0.04357683     0.36700
C3128       C  0.93034625  0.91367706  0.97456232     0.40000
N3129       N  0.87715029  0.83084964  0.97079957    -0.38100
N3130       N  0.85010498  0.86826235  0.97891948    -0.39700
N3131       N  0.52514248  0.84259474  0.03338409    -0.37400
N3132       N  0.99867700  0.88045129  0.03858012    -0.39800
N3133       N  0.97677149  0.88445857  0.96222980    -0.39600
N3134       N  0.93991157  0.92106211  0.96084160    -0.37200
N3135       N  0.83397267  0.90554126  0.05333025    -0.38300
N3136       N  0.87649501  0.87018639  0.05780477    -0.39900
C3137       C  0.73646758  0.76011582  0.77127899    -0.04900
C3138       C  0.70335092  0.76186130  0.76307292     0.09300
C3139       C  0.69239765  0.77428107  0.75577892    -0.02300
C3140       C  0.71513981  0.78477640  0.75514441    -0.00500
C3141       C  0.74895248  0.78289916  0.76223284    -0.04100
C3142       C  0.75906135  0.77065067  0.77122291     0.02900
C3143       C  0.68085626  0.75036873  0.76031339     0.09700
C3144       C  0.65785113  0.77611151  0.74832616     0.35600
C3145       C  0.79251418  0.76893665  0.78088625     0.39100
C3146       C  0.66068372  0.74607782  0.77893335    -0.04500
C3147       C  0.64115161  0.73470528  0.77658225     0.02700
C3148       C  0.64181448  0.72757684  0.75551985    -0.04100
C3149       C  0.66115784  0.73221617  0.73661115    -0.00300
C3150       C  0.68062119  0.74356349  0.73903562    -0.02900
C3151       C  0.66101859  0.75314421  0.80075988     0.36400
C3152       C  0.66140055  0.72522976  0.71467610     0.40000
C3153       C  0.62235893  0.72987816  0.79641535     0.39100
C3154       C  0.70130729  0.74807249  0.71986767     0.36000
C3155       C  0.74750462  0.74736620  0.77919972     0.36700
C3156       C  0.70393209  0.79727661  0.74610559     0.40000
N3157       N  0.60753059  0.72599307  0.81228798    -0.38100
N3158       N  0.66139285  0.75877939  0.81817481    -0.39700
N3159       N  0.66168939  0.71964785  0.69720368    -0.37400
N3160       N  0.71792921  0.75171234  0.70468499    -0.39800
N3161       N  0.63024252  0.77751361  0.74247015    -0.39600
N3162       N  0.69485641  0.80722918  0.73888980    -0.37200
N3163       N  0.81914184  0.76765578  0.78870503    -0.38300
N3164       N  0.75635972  0.73718699  0.78545273    -0.39900
C3165       C  0.85313308  0.80802637  0.86054267    -0.04900
C3166       C  0.88825390  0.80627993  0.86219268     0.09300
C3167       C  0.90723927  0.80502569  0.84165873    -0.02300
C3168       C  0.89148491  0.80568519  0.81960820    -0.00500
C3169       C  0.85621346  0.80776786  0.81769912    -0.04100
C3170       C  0.83718540  0.80889307  0.83847219    -0.00300
C3171       C  0.90563106  0.80591829  0.88552389     0.09700
C3172       C  0.94329464  0.80307821  0.84330041     0.35600
C3173       C  0.80104189  0.81056294  0.83732569     0.39100
C3174       C  0.91147935  0.79392936  0.89700153    -0.04500
C3175       C  0.92860606  0.79358334  0.91861821     0.02700
C3176       C  0.94064284  0.80520982  0.92877258    -0.04100
C3177       C  0.93534661  0.81718623  0.91703190    -0.00300
C3178       C  0.91767348  0.81753696  0.89562860    -0.02900
C3179       C  0.90004377  0.78193191  0.88640237     0.36400
C3180       C  0.94715397  0.82922825  0.92731850     0.40000
C3181       C  0.93459432  0.78120235  0.93017456     0.39100
C3182       C  0.91162902  0.82988277  0.88397696     0.36000
C3183       C  0.83338570  0.80873710  0.88168509     0.36700
C3184       C  0.91218582  0.80451127  0.79894241     0.40000
N3185       N  0.93947717  0.77134250  0.93943383    -0.38100
N3186       N  0.89099110  0.77236677  0.87785490    -0.39700
N3187       N  0.45635958  0.83873363  0.93559896    -0.37400
N3188       N  0.90665961  0.83971660  0.87465360    -0.39800
N3189       N  0.97203177  0.80151576  0.84466533    -0.39600
N3190       N  0.92875034  0.80347936  0.78250941    -0.37200
N3191       N  0.77218630  0.81190429  0.83648972    -0.38300
N3192       N  0.81769757  0.80920821  0.89860403    -0.39900
C3193       C  0.96296419  0.93170264  0.86186310    -0.04900
C3194       C  0.92748187  0.93193904  0.86185463     0.09300
C3195       C  0.91024337  0.93156674  0.84041457    -0.02300
C3196       C  0.92814136  0.93164440  0.81915637    -0.00500
C3197       C  0.96382158  0.93231988  0.81894488    -0.04100
C3198       C  0.98108313  0.93184036  0.84058878     0.02900
C3199       C  0.90797978  0.93304224  0.88430290     0.09700
C3200       C  0.87381861  0.93110244  0.84030451     0.35600
C3201       C  0.51695452  0.93082377  0.84087810     0.39100
C3202       C  0.89812623  0.94541284  0.89259359    -0.04500
C3203       C  0.87881317  0.94657089  0.91316938     0.02700
C3204       C  0.86914748  0.93534358  0.92588173    -0.04100
C3205       C  0.87865715  0.92291386  0.91730401    -0.00300
C3206       C  0.89807395  0.92180251  0.89672407    -0.02900
C3207       C  0.90817160  0.95700044  0.87990995     0.36400
C3208       C  0.86975032  0.91122265  0.93011710     0.40000
C3209       C  0.86811538  0.95936512  0.92087339     0.39100
C3210       C  0.90841081  0.90907563  0.88846207     0.36000
C3211       C  0.98080923  0.93141846  0.88388762     0.36700
C3212       C  0.90948936  0.93049914  0.79753204     0.40000
N3213       N  0.85947704  0.96958256  0.92692095    -0.38100
N3214       N  0.91633588  0.96620907  0.86974076    -0.39700
N3215       N  0.86273016  0.90188383  0.94033360    -0.37400
N3216       N  0.91680896  0.89892825  0.88190011    -0.39800
N3217       N  0.84476844  0.93070479  0.84030457    -0.39600
N3218       N  0.89442261  0.92951556  0.78038207    -0.37200
N3219       N  0.54598272  0.93018334  0.84136729    -0.38300
N3220       N  0.99499462  0.93113982  0.90148936    -0.39900
C3221       C  0.91430683  0.88849455  0.72917957    -0.04900
C3222       C  0.93305777  0.87695139  0.73196991     0.09300
C3223       C  0.96797727  0.87752164  0.73496039    -0.02300
C3224       C  0.98387695  0.88962463  0.73778647    -0.00500
C3225       C  0.96470355  0.90141655  0.73742359    -0.04100
C3226       C  0.93001132  0.90072688  0.73163010     0.02900
C3227       C  0.91566107  0.86428848  0.73534368     0.09700
C3228       C  0.98733126  0.86550758  0.73608357     0.35600
C3229       C  0.90987043  0.91242021  0.72877469     0.39100
C3230       C  0.90916579  0.85599045  0.71636393    -0.04500
C3231       C  0.89267839  0.84402790  0.72007868     0.02700
C3232       C  0.88171665  0.84064454  0.74265539    -0.04100
C3233       C  0.88956699  0.84870731  0.76174787    -0.00300
C3234       C  0.90671448  0.86046678  0.75810554    -0.02900
C3235       C  0.91872195  0.85993851  0.69305690     0.36400
C3236       C  0.88019784  0.84483688  0.78519506     0.40000
C3237       C  0.88603265  0.83542790  0.70062788     0.39100
C3238       C  0.91490182  0.86875365  0.77775071     0.36000
C3239       C  0.87852035  0.88769546  0.72455748     0.36700
C3240       C  0.01997700  0.88960560  0.74154914     0.40000
N3241       N  0.88085172  0.82852341  0.68514866    -0.38100
N3242       N  0.92619702  0.86313541  0.67443874    -0.39700
N3243       N  0.87281327  0.84174279  0.80389034    -0.37400
N3244       N  0.92157429  0.87538297  0.79333914    -0.39800
N3245       N  0.00270439  0.85592646  0.73690875    -0.39600
N3246       N  0.04871289  0.88945134  0.74465565    -0.37200
N3247       N  0.89356900  0.92168313  0.72628643    -0.38300
N3248       N  0.85001457  0.88700068  0.72080598    -0.39900
C3249       C  0.90089521  0.66964925  0.41504231    -0.04900
C3250       C  0.89820376  0.68073322  0.40050505     0.09300
C3251       C  0.89887774  0.69326068  0.41056381    -0.02300
C3252       C  0.90338772  0.69472825  0.43480974    -0.00500
C3253       C  0.90789443  0.68367931  0.44928940    -0.04100
C3254       C  0.90565487  0.67109668  0.43935388     0.02900
C3255       C  0.89381170  0.67937841  0.37459103     0.09700
C3256       C  0.89518942  0.70467959  0.39581655     0.35600
C3257       C  0.90978246  0.65962541  0.45390608     0.39100
C3258       C  0.86147996  0.67764186  0.36508774    -0.04500
C3259       C  0.85656536  0.67803350  0.34073133     0.02700
C3260       C  0.88403279  0.68024472  0.32550014    -0.04100
C3261       C  0.91668637  0.68127062  0.33502961    -0.00300
C3262       C  0.92151855  0.68083042  0.35946651    -0.02900
C3263       C  0.83307360  0.67575551  0.38050597     0.36400
C3264       C  0.94515551  0.68349941  0.31988546     0.40000
C3265       C  0.82306373  0.67601245  0.33140121     0.39100
C3266       C  0.95495979  0.68218783  0.36917409     0.36000
C3267       C  0.89945376  0.65676092  0.40484116     0.36700
C3268       C  0.90250259  0.70764946  0.44498599     0.40000
N3269       N  0.79635878  0.67434508  0.32399994    -0.38100
N3270       N  0.81047552  0.67423210  0.39284747    -0.39700
N3271       N  0.96803535  0.68530615  0.30793599    -0.37400
N3272       N  0.98164130  0.68325845  0.37695824    -0.39800
N3273       N  0.89235111  0.71375528  0.38395714    -0.39600
N3274       N  0.90152967  0.71792995  0.45318382    -0.37200
N3275       N  0.91318904  0.65046143  0.46548223    -0.38300
N3276       N  0.89825309  0.64648527  0.39664969    -0.39900
C3277       C  0.70159879  0.56625313  0.34463788    -0.04900
C3278       C  0.67398205  0.55975625  0.35462862     0.09300
C3279       C  0.65378177  0.55164577  0.34053462    -0.02300
C3280       C  0.66108477  0.55009291  0.31657688    -0.00500
C3281       C  0.68925541  0.55633918  0.30671496    -0.04100
C3282       C  0.70954973  0.56440058  0.32094769     0.02900
C3283       C  0.66719746  0.56101354  0.38026747     0.09700
C3284       C  0.62627867  0.54449828  0.35097221     0.35600
C3285       C  0.73884283  0.57083747  0.31131232     0.39100
C3286       C  0.64104569  0.56912943  0.38837677    -0.04500
C3287       C  0.63413374  0.56993063  0.41246569     0.02700
C3288       C  0.65348587  0.56269471  0.42866548    -0.04100
C3289       C  0.68047243  0.55498582  0.42059621    -0.00300
C3290       C  0.68720957  0.55411201  0.39650931    -0.02900
C3291       C  0.62118266  0.57661061  0.37187172     0.36400
C3292       C  0.70051273  0.54745519  0.43687528     0.40000
C3293       C  0.60719161  0.57828576  0.42065299     0.39100
C3294       C  0.71432169  0.54584258  0.38832691     0.36000
C3295       C  0.72218202  0.57472297  0.35892472     0.36700
C3296       C  0.64071897  0.54151807  0.30239173     0.40000
N3297       N  0.58577585  0.58497142  0.42722332    -0.38100
N3298       N  0.60533526  0.58256945  0.35867242    -0.39700
N3299       N  0.71692247  0.54133226  0.44946183    -0.37400
N3300       N  0.73597582  0.53927293  0.38176666    -0.39800
N3301       N  0.60449028  0.53875217  0.35942693    -0.39600
N3302       N  0.62454569  0.53465130  0.29105134    -0.37200
N3303       N  0.76235908  0.57595374  0.30384529    -0.38300
N3304       N  0.73861476  0.58144422  0.37036298    -0.39900
C3305       C  0.64160735  0.50146877  0.21896242    -0.04900
C3306       C  0.63812005  0.49459142  0.24008878     0.09300
C3307       C  0.65872797  0.49771414  0.25926037    -0.02300
C3308       C  0.68083913  0.50841509  0.25795278    -0.00500
C3309       C  0.68246430  0.51595270  0.23732624    -0.04100
C3310       C  0.66386536  0.51206762  0.21752803     0.02900
C3311       C  0.61229090  0.48414406  0.24211751     0.09700
C3312       C  0.65638992  0.49009351  0.28050163     0.35600
C3313       C  0.66730800  0.51912248  0.19571062     0.39100
C3314       C  0.62007306  0.47139468  0.23503187    -0.04500
C3315       C  0.59523146  0.46168202  0.23552109     0.02700
C3316       C  0.56257233  0.46453009  0.24407656    -0.04100
C3317       C  0.55488029  0.47734804  0.25126048    -0.00300
C3318       C  0.57967605  0.48714332  0.25015164    -0.02900
C3319       C  0.65374078  0.46831773  0.22704584     0.36400
C3320       C  0.02181349  0.48044717  0.26006766     0.40000
C3321       C  0.60301554  0.44896312  0.22587355     0.39100
C3322       C  0.57172392  0.50035822  0.25715647     0.36000
C3323       C  0.62155068  0.49783041  0.19889853     0.36700
C3324       C  0.70014695  0.51212264  0.27830565     0.40000
N3325       N  0.60928197  0.43887588  0.21800845    -0.38100
N3326       N  0.68062448  0.46586069  0.22078572    -0.39700
N3327       N  0.99539245  0.48294073  0.26717078    -0.37400
N3328       N  0.56550963  0.51092414  0.26270353    -0.39800
N3329       N  0.65446725  0.48395014  0.29737373    -0.39600
N3330       N  0.71551358  0.51505659  0.29458540    -0.37200
N3331       N  0.67015025  0.52477416  0.17836001    -0.38300
N3332       N  0.60553218  0.49490072  0.18292220    -0.39900
C3333       C  0.79797133  0.63201701  0.27855635    -0.04900
C3334       C  0.77497262  0.62917449  0.26066688     0.09300
C3335       C  0.76234012  0.63923308  0.24628241    -0.02300
C3336       C  0.77489263  0.65199041  0.24856962    -0.00500
C3337       C  0.80049713  0.65453297  0.26492356    -0.04100
C3338       C  0.81107248  0.64464622  0.28051820     0.02900
C3339       C  0.76588325  0.61539001  0.25614269     0.09700
C3340       C  0.73787175  0.63626476  0.22834689     0.35600
C3341       C  0.83700213  0.64723622  0.29768682     0.39100
C3342       C  0.73687123  0.61009467  0.26630596    -0.04500
C3343       C  0.72878509  0.59695846  0.26252923     0.02700
C3344       C  0.75010368  0.58901895  0.24880794    -0.04100
C3345       C  0.77933538  0.59431144  0.23878699    -0.00300
C3346       C  0.78720805  0.60751202  0.24244753    -0.02900
C3347       C  0.71568941  0.61815470  0.28095320     0.36400
C3348       C  0.80047822  0.58633511  0.22396743     0.40000
C3349       C  0.69882736  0.59159230  0.27324473     0.39100
C3350       C  0.81724578  0.61303215  0.23217545     0.36000
C3351       C  0.80931718  0.62175311  0.29417900     0.36700
C3352       C  0.76355923  0.66220317  0.23286905     0.40000
N3353       N  0.67489496  0.58738840  0.28182152    -0.38100
N3354       N  0.69890202  0.62458899  0.29268683    -0.39700
N3355       N  0.81717091  0.57994999  0.21207775    -0.37400
N3356       N  0.84123154  0.61745664  0.22404360    -0.39800
N3357       N  0.71840117  0.63385188  0.21401915    -0.39600
N3358       N  0.75453386  0.67036212  0.22035797    -0.37200
N3359       N  0.85787289  0.64912624  0.31130559    -0.38300
N3360       N  0.81825654  0.61353814  0.30659866    -0.39900
C3361       C  0.63517524  0.69235749  0.91451982    -0.04900
C3362       C  0.65747597  0.68692277  0.89802224     0.09300
C3363       C  0.68728958  0.68083763  0.90584955    -0.02300
C3364       C  0.69548534  0.68068848  0.92978029    -0.00500
C3365       C  0.67323373  0.68614363  0.94634106    -0.04100
C3366       C  0.64277782  0.69179599  0.93859245     0.02900
C3367       C  0.64976369  0.68761211  0.87236433     0.09700
C3368       C  0.70962987  0.67473107  0.88917078     0.35600
C3369       C  0.62000851  0.69767316  0.95519990     0.39100
C3370       C  0.66817238  0.69602427  0.85758836    -0.04500
C3371       C  0.66157946  0.69636851  0.83336140     0.02700
C3372       C  0.63582052  0.68859019  0.82382731    -0.04100
C3373       C  0.61721296  0.68028113  0.83866336    -0.00300
C3374       C  0.62443088  0.67967948  0.86272003    -0.02900
C3375       C  0.69328565  0.70459670  0.86748300     0.36400
C3376       C  0.59064175  0.67223156  0.82912083     0.40000
C3377       C  0.68037090  0.70511862  0.81842867     0.39100
C3378       C  0.60568156  0.67089228  0.87761850     0.36000
C3379       C  0.60481549  0.69887037  0.90663680     0.36700
C3380       C  0.72709726  0.67495977  0.93729050     0.40000
N3381       N  0.69539893  0.71210968  0.80654738    -0.38100
N3382       N  0.71323457  0.71144825  0.87546397    -0.39700
N3383       N  0.56936392  0.66586313  0.82151149    -0.37400
N3384       N  0.59062990  0.66393169  0.88953665    -0.39800
N3385       N  0.72738490  0.66986956  0.87582071    -0.39600
N3386       N  0.75243991  0.67045566  0.94315562    -0.37200
N3387       N  0.60157856  0.70241405  0.96823084    -0.38300
N3388       N  0.58059058  0.70406738  0.90033998    -0.39900
C3389       C  0.62984899  0.74270005  0.00972424    -0.04900
C3390       C  0.59531720  0.73974165  0.00891445     0.09300
C3391       C  0.58444212  0.72698702  0.01353949    -0.02300
C3392       C  0.60796185  0.71708802  0.01845470    -0.00500
C3393       C  0.64314150  0.71971435  0.01751828    -0.04100
C3394       C  0.65374351  0.73274853  0.01381768     0.02900
C3395       C  0.57006352  0.75013806  0.00372452     0.09700
C3396       C  0.54879674  0.72399987  0.01271448     0.35600
C3397       C  0.68908676  0.73610036  0.01461406     0.39100
C3398       C  0.56547098  0.75465355  0.98069365    -0.04500
C3399       C  0.54275754  0.76491080  0.97606710     0.02700
C3400       C  0.52389781  0.77042944  0.99437036    -0.04100
C3401       C  0.52696054  0.76528336  0.01717697    -0.00300
C3402       C  0.55040293  0.75532659  0.02187118    -0.02900
C3403       C  0.58441024  0.74880538  0.96185870     0.36400
C3404       C  0.00708565  0.77084924  0.03649324     0.40000
C3405       C  0.53880960  0.76981817  0.95249672     0.39100
C3406       C  0.55516029  0.75069607  0.04556709     0.36000
C3407       C  0.64070004  0.75605676  0.00632395     0.36700
C3408       C  0.59514189  0.70418542  0.02384444     0.40000
N3409       N  0.53561921  0.77374409  0.93370822    -0.38100
N3410       N  0.59955392  0.74410117  0.94688025    -0.39700
N3411       N  0.99206777  0.77515964  0.05190543    -0.37400
N3412       N  0.55896600  0.74699199  0.06444165    -0.39800
N3413       N  0.52040134  0.72163680  0.01205189    -0.39600
N3414       N  0.58462836  0.69396007  0.02816365    -0.37200
N3415       N  0.71726122  0.73883730  0.01525050    -0.38300
N3416       N  0.64921393  0.76672348  0.00362866    -0.39900
C3417       C  0.79418884  0.69943753  0.16076477    -0.04900
C3418       C  0.79447692  0.68838137  0.14631629     0.09300
C3419       C  0.81216015  0.67714280  0.15358164    -0.02300
C3420       C  0.82867009  0.67680250  0.17547888    -0.00500
C3421       C  0.82813339  0.68785566  0.19033147    -0.04100
C3422       C  0.81106527  0.69926501  0.18245419     0.02900
C3423       C  0.77717431  0.68881767  0.12296331     0.09700
C3424       C  0.81314435  0.66586911  0.13843129     0.35600
C3425       C  0.81099374  0.71103812  0.19636654     0.39100
C3426       C  0.79449341  0.69351734  0.10334700    -0.04500
C3427       C  0.77863573  0.69402819  0.08130698     0.02700
C3428       C  0.74463660  0.68991162  0.07850996    -0.04100
C3429       C  0.72705097  0.68559462  0.09863166    -0.00300
C3430       C  0.74334621  0.68498355  0.12059742    -0.02900
C3431       C  0.82889917  0.69794478  0.10598182     0.36400
C3432       C  0.69179997  0.68216156  0.09717584     0.40000
C3433       C  0.79810689  0.69869346  0.06165516     0.39100
C3434       C  0.72519029  0.68054621  0.14098814     0.36000
C3435       C  0.77631572  0.71105571  0.15319956     0.36700
C3436       C  0.84498466  0.66483088  0.18288300     0.40000
N3437       N  0.81382614  0.70247765  0.04611850    -0.38100
N3438       N  0.85625359  0.70152411  0.10817172    -0.39700
N3439       N  0.66363213  0.67946442  0.09613816    -0.37400
N3440       N  0.71076728  0.67703216  0.15730678    -0.39800
N3441       N  0.81392234  0.65691021  0.12625980    -0.39600
N3442       N  0.85792949  0.65524079  0.18870002    -0.37200
N3443       N  0.81066608  0.72046666  0.20735615    -0.38300
N3444       N  0.76200676  0.72029461  0.14711413    -0.39900
C3445       C  0.94111920  0.56078276  0.89509618    -0.04900
C3446       C  0.91464865  0.56274420  0.87903644     0.09300
C3447       C  0.88201091  0.56520463  0.88743973    -0.02300
C3448       C  0.87570809  0.56544484  0.91165350    -0.00500
C3449       C  0.90179209  0.56270462  0.92788171    -0.04100
C3450       C  0.93476020  0.56068026  0.91936982     0.02900
C3451       C  0.92097561  0.56183907  0.85323411     0.09700
C3452       C  0.85467364  0.56718025  0.87105253     0.35600
C3453       C  0.96209379  0.55797232  0.93535438     0.39100
C3454       C  0.92202563  0.54954818  0.84227985    -0.04500
C3455       C  0.92905457  0.54858683  0.81822497     0.02700
C3456       C  0.93495622  0.55993770  0.80478160    -0.04100
C3457       C  0.93267651  0.57227656  0.81560181    -0.00300
C3458       C  0.92589992  0.57320324  0.83973568    -0.02900
C3459       C  0.91591633  0.53786210  0.85587429     0.36400
C3460       C  0.93879466  0.58401806  0.80216274     0.40000
C3461       C  0.92958342  0.53588128  0.80720339     0.39100
C3462       C  0.92469723  0.58585172  0.85086292     0.36000
C3463       C  0.97490692  0.55863364  0.88650405     0.36700
C3464       C  0.84234905  0.56886700  0.91980609     0.40000
N3465       N  0.92995547  0.52576229  0.79836633    -0.38100
N3466       N  0.91101910  0.52855732  0.86676881    -0.39700
N3467       N  0.94373129  0.59337438  0.79141462    -0.37400
N3468       N  0.92374520  0.59593770  0.85978927    -0.39800
N3469       N  0.83288116  0.56868901  0.85794303    -0.39600
N3470       N  0.81581235  0.57167345  0.92632688    -0.37200
N3471       N  0.98426466  0.55581343  0.94784336    -0.38300
N3472       N  0.00182611  0.55693063  0.87955723    -0.39900
C3473       C  0.82476704  0.56635298  0.09883138    -0.04900
C3474       C  0.80998267  0.55466637  0.10678226     0.09300
C3475       C  0.81252021  0.54338526  0.09292589    -0.02300
C3476       C  0.82901828  0.54380980  0.07113808    -0.00500
C3477       C  0.84319113  0.55559129  0.06273177    -0.04100
C3478       C  0.84132308  0.56683480  0.07698962     0.02900
C3479       C  0.79299517  0.55400463  0.13025374     0.09700
C3480       C  0.79801485  0.53127536  0.10118664     0.35600
C3481       C  0.85531421  0.57907116  0.06894308     0.39100
C3482       C  0.75891438  0.55748918  0.13284302    -0.04500
C3483       C  0.74273012  0.55637491  0.15477868     0.02700
C3484       C  0.76070469  0.55192254  0.17480037    -0.04100
C3485       C  0.79530777  0.54849028  0.17182948    -0.00300
C3486       C  0.81098635  0.54949328  0.14979795    -0.02900
C3487       C  0.74048800  0.56230287  0.11274867     0.36400
C3488       C  0.81573224  0.54400606  0.19125469     0.40000
C3489       C  0.70745519  0.55981201  0.15631665     0.39100
C3490       C  0.84610199  0.54592786  0.14715384     0.36000
C3491       C  0.82267061  0.57792622  0.11316859     0.36700
C3492       C  0.83201687  0.53193753  0.05766917     0.40000
N3493       N  0.67927598  0.56256427  0.15737282    -0.38100
N3494       N  0.72591055  0.56620125  0.09671276    -0.39700
N3495       N  0.83230183  0.54044256  0.20660161    -0.37400
N3496       N  0.87407347  0.54308263  0.14498739    -0.39800
N3497       N  0.78646513  0.52162804  0.10784329    -0.39600
N3498       N  0.83435966  0.52242665  0.04702586    -0.37200
N3499       N  0.86651155  0.58884440  0.06258052    -0.38300
N3500       N  0.82088961  0.58714403  0.12465844    -0.39900
C3501       C  0.78406259  0.60724391  0.00677282    -0.04900
C3502       C  0.79810234  0.61730510  0.99308774     0.09300
C3503       C  0.82438549  0.61453071  0.97748163    -0.02300
C3504       C  0.83759258  0.60183639  0.97624437    -0.00500
C3505       C  0.82461663  0.59189426  0.99071230    -0.04100
C3506       C  0.79737176  0.59453470  0.00562782     0.02900
C3507       C  0.78469217  0.63081888  0.99482056     0.09700
C3508       C  0.83802146  0.62480057  0.96291291     0.35600
C3509       C  0.78432416  0.58438230  0.02072366     0.39100
C3510       C  0.80216644  0.64035465  0.00769509    -0.04500
C3511       C  0.78824510  0.65290806  0.01045024     0.02700
C3512       C  0.75672198  0.65587185  0.00044342    -0.04100
C3513       C  0.74001065  0.64642312  0.98673344    -0.00300
C3514       C  0.75408582  0.63397357  0.98387107    -0.02900
C3515       C  0.83400022  0.63710015  0.01861706     0.36400
C3516       C  0.70809727  0.64942599  0.97559731     0.40000
C3517       C  0.80541345  0.66245924  0.02467996     0.39100
C3518       C  0.73682889  0.62428138  0.96994227     0.36000
C3519       C  0.75638944  0.61006041  0.02237897     0.36700
C3520       C  0.86462048  0.59899318  0.96007806     0.40000
N3521       N  0.81916703  0.67004178  0.03608395    -0.38100
N3522       N  0.85944205  0.63448996  0.02726167    -0.39700
N3523       N  0.68260841  0.65175233  0.96675978    -0.37400
N3524       N  0.72309808  0.61652046  0.95891393    -0.39800
N3525       N  0.84891266  0.63302874  0.95138660    -0.39600
N3526       N  0.88613896  0.59671927  0.94718178    -0.37200
N3527       N  0.77402355  0.57627713  0.03278637    -0.38300
N3528       N  0.73420170  0.61230791  0.03473144    -0.39900
C3529       C  0.90525283  0.18473271  0.85972767    -0.04900
C3530       C  0.93080382  0.18079072  0.84429913     0.09300
C3531       C  0.96200875  0.17657647  0.85328655    -0.02300
C3532       C  0.96788717  0.17661856  0.87758424    -0.00500
C3533       C  0.94257305  0.18093442  0.89309839    -0.04100
C3534       C  0.91114378  0.18490788  0.88396411     0.02900
C3535       C  0.92474234  0.18153769  0.81854287     0.09700
C3536       C  0.98815667  0.17234785  0.83746222     0.35600
C3537       C  0.88533385  0.18998389  0.89916105     0.39100
C3538       C  0.92837930  0.19353854  0.80673704    -0.04500
C3539       C  0.91832693  0.19475997  0.78323826     0.02700
C3540       C  0.90488540  0.18393887  0.77130157    -0.04100
C3541       C  0.90352645  0.17169671  0.78265453    -0.00300
C3542       C  0.91283700  0.17057017  0.80633238    -0.02900
C3543       C  0.94175055  0.20470910  0.81902675     0.36400
C3544       C  0.89131254  0.16034557  0.77030646     0.40000
C3545       C  0.92238470  0.20710120  0.77117987     0.39100
C3546       C  0.90885349  0.15826313  0.81847128     0.36000
C3547       C  0.87293071  0.18884494  0.85049338     0.36700
C3548       C  0.99995282  0.17209310  0.88661149     0.40000
N3549       N  0.92577204  0.21691239  0.76148487    -0.38100
N3550       N  0.95242421  0.21359842  0.82889960    -0.39700
N3551       N  0.88165779  0.15126136  0.76049013    -0.37400
N3552       N  0.40540349  0.14867184  0.82829116    -0.39800
N3553       N  0.00901051  0.16896255  0.82482195    -0.39600
N3554       N  0.02549823  0.16847506  0.89384576    -0.37200
N3555       N  0.86420631  0.19421130  0.91068516    -0.38300
N3556       N  0.84721586  0.19210712  0.84302759    -0.39900
C3557       C  0.69691825  0.06634684  0.85993423    -0.04900
C3558       C  0.66773182  0.05972086  0.86723264     0.09300
C3559       C  0.64695919  0.05373113  0.85043886    -0.02300
C3560       C  0.65547999  0.05421283  0.82658420    -0.00500
C3561       C  0.68507223  0.06062787  0.81926375    -0.04100
C3562       C  0.70570427  0.06672244  0.83609367     0.02900
C3563       C  0.65862644  0.05903020  0.89260526     0.09700
C3564       C  0.61692576  0.04690680  0.85781495     0.35600
C3565       C  0.73562150  0.07365843  0.82884068     0.39100
C3566       C  0.63211953  0.06675175  0.90132989    -0.04500
C3567       C  0.62144512  0.06528202  0.92461015     0.02700
C3568       C  0.63807847  0.05643190  0.93969198    -0.04100
C3569       C  0.66571970  0.04918322  0.93130568    -0.00300
C3570       C  0.67554447  0.05030226  0.90773058    -0.02900
C3571       C  0.61576052  0.07620599  0.88624451     0.36400
C3572       C  0.68323720  0.04019430  0.94666778     0.40000
C3573       C  0.59334173  0.07296711  0.93302725     0.39100
C3574       C  0.70244880  0.04219185  0.89881128     0.36000
C3575       C  0.71769967  0.07290060  0.87701002     0.36700
C3576       C  0.63443368  0.04758833  0.80972522     0.40000
N3577       N  0.57078990  0.07907592  0.93955869    -0.38100
N3578       N  0.60279013  0.08376871  0.87420921    -0.39700
N3579       N  0.69729698  0.03304826  0.95893107    -0.37400
N3580       N  0.72386465  0.03570764  0.89164135    -0.39800
N3581       N  0.59292493  0.04151423  0.86375819    -0.39600
N3582       N  0.61765451  0.04226743  0.79632578    -0.37200
N3583       N  0.75947716  0.07919109  0.82302239    -0.38300
N3584       N  0.73420638  0.07813032  0.89068110    -0.39900
C3585       C  0.63045017  0.00706042  0.73898623    -0.04900
C3586       C  0.62868466  0.00107293  0.76109634     0.09300
C3587       C  0.64869467  0.00575072  0.77953549    -0.02300
C3588       C  0.66968352  0.01663821  0.77607309    -0.00500
C3589       C  0.67024718  0.02301725  0.75420387    -0.04100
C3590       C  0.65098292  0.01805017  0.73558278     0.02900
C3591       C  0.60710925  0.98933044  0.76441790     0.09700
C3592       C  0.64728980  0.99943051  0.80213184     0.35600
C3593       C  0.65260593  0.02418568  0.71280695     0.39100
C3594       C  0.62010104  0.97696802  0.75893932    -0.04500
C3595       C  0.59930037  0.96591992  0.75988395     0.02700
C3596       C  0.56505785  0.96711973  0.76661556    -0.04100
C3597       C  0.55239988  0.97953465  0.77278607    -0.00300
C3598       C  0.57342125  0.99060047  0.77168976    -0.02900
C3599       C  0.65485122  0.97571547  0.75159662     0.36400
C3600       C  0.51789430  0.98095528  0.78042540     0.40000
C3601       C  0.61300981  0.95349513  0.75238756     0.39100
C3602       C  0.56037901  0.00335539  0.77770637     0.36000
C3603       C  0.61109191  0.00187464  0.71972174     0.36700
C3604       C  0.68949039  0.02159281  0.79532941     0.40000
N3605       N  0.62408450  0.94363085  0.74634187    -0.38100
N3606       N  0.68253004  0.97476817  0.74571617    -0.39700
N3607       N  0.99164328  0.98189225  0.78914185    -0.37400
N3608       N  0.55007143  0.01355153  0.78252161    -0.39800
N3609       N  0.64609471  0.99439281  0.82016542    -0.39600
N3610       N  0.70529506  0.02552218  0.81070364    -0.37200
N3611       N  0.65400748  0.02909983  0.69467110    -0.38300
N3612       N  0.59576902  0.99771028  0.70432073    -0.39900
C3613       C  0.78617612  0.14388609  0.75527554    -0.04900
C3614       C  0.77488014  0.13514771  0.73800974     0.09300
C3615       C  0.77296205  0.13930409  0.71456515    -0.02300
C3616       C  0.78610198  0.15149282  0.70805462    -0.00500
C3617       C  0.79979875  0.15978592  0.72508818    -0.04100
C3618       C  0.79743203  0.15640198  0.74885907     0.02900
C3619       C  0.76669305  0.12134277  0.74409604     0.09700
C3620       C  0.75867174  0.13080150  0.69703581     0.35600
C3621       C  0.80794140  0.16555779  0.76661413     0.39100
C3622       C  0.73723239  0.11836076  0.75657039    -0.04500
C3623       C  0.72880369  0.10527738  0.76106596     0.02700
C3624       C  0.74854183  0.09505821  0.75173712    -0.04100
C3625       C  0.77862349  0.09805583  0.73987178    -0.00300
C3626       C  0.78799481  0.11116244  0.73652273    -0.02900
C3627       C  0.71485957  0.12873606  0.76393370     0.36400
C3628       C  0.79895921  0.08775591  0.72983709     0.40000
C3629       C  0.69996771  0.10234299  0.77557974     0.39100
C3630       C  0.81911546  0.11421431  0.72459000     0.36000
C3631       C  0.78811742  0.13973361  0.77940706     0.36700
C3632       C  0.78604444  0.15544969  0.68377874     0.40000
N3633       N  0.67716987  0.09997541  0.78730821    -0.38100
N3634       N  0.69696515  0.13701740  0.76971991    -0.39700
N3635       N  0.81511952  0.07955556  0.72172480    -0.37400
N3636       N  0.84383302  0.11668856  0.71499845    -0.39800
N3637       N  0.74733567  0.12398794  0.68307866    -0.39600
N3638       N  0.78591296  0.15859183  0.66441049    -0.37200
N3639       N  0.81597177  0.17288581  0.78084054    -0.38300
N3640       N  0.78974546  0.13639198  0.79864146    -0.39900
C3641       C  0.89420483  0.05128998  0.39683268    -0.04900
C3642       C  0.88848832  0.06343205  0.38579034     0.09300
C3643       C  0.87861267  0.07423825  0.39935627    -0.02300
C3644       C  0.87418248  0.07288005  0.42365973    -0.00500
C3645       C  0.87735856  0.06049746  0.43438187    -0.04100
C3646       C  0.88799238  0.04975804  0.42090522     0.02900
C3647       C  0.89359235  0.06478480  0.35993231     0.09700
C3648       C  0.87209739  0.08668698  0.38818599     0.35600
C3649       C  0.89353142  0.03720153  0.43196556     0.39100
C3650       C  0.87077119  0.05900823  0.34414401    -0.04500
C3651       C  0.87780770  0.05882685  0.32000095     0.02700
C3652       C  0.90735682  0.06470468  0.31142671    -0.04100
C3653       C  0.92883908  0.07132612  0.32706200    -0.00300
C3654       C  0.92224524  0.07121299  0.35119845    -0.02900
C3655       C  0.84037398  0.05299991  0.35288859     0.36400
C3656       C  0.45664716  0.07886902  0.31786446     0.40000
C3657       C  0.85571262  0.05190539  0.30423368     0.39100
C3658       C  0.94558814  0.07736202  0.36714376     0.36000
C3659       C  0.90677958  0.04038859  0.38336173     0.36700
C3660       C  0.86544276  0.08420096  0.43748051     0.40000
N3661       N  0.83818423  0.04632938  0.29165445    -0.38100
N3662       N  0.81613346  0.04822337  0.35994756    -0.39700
N3663       N  0.47932821  0.08463747  0.31067306    -0.37400
N3664       N  0.46353896  0.08269265  0.37947179    -0.39800
N3665       N  0.86678488  0.09661455  0.37928099    -0.39600
N3666       N  0.85869036  0.09325035  0.44851839    -0.37200
N3667       N  0.89805672  0.02720026  0.44081800    -0.38300
N3668       N  0.91692336  0.03174864  0.37252252    -0.39900
C3669       C  0.76552932  0.04379353  0.65137569    -0.04900
C3670       C  0.76311443  0.05486385  0.63675917     0.09300
C3671       C  0.74805965  0.06633547  0.64552266    -0.02300
C3672       C  0.73649135  0.06686709  0.66881369    -0.00500
C3673       C  0.73958203  0.05586959  0.68365423    -0.04100
C3674       C  0.75398852  0.04429637  0.67467091     0.02900
C3675       C  0.77801974  0.05467213  0.61255544     0.09700
C3676       C  0.74480100  0.07767252  0.63053565     0.35600
C3677       C  0.75656579  0.03278806  0.68930268     0.39100
C3678       C  0.76165073  0.04821546  0.59411865    -0.04500
C3679       C  0.77583235  0.04803429  0.57145996     0.02700
C3680       C  0.80681204  0.05447830  0.56671894    -0.04100
C3681       C  0.82316376  0.06087712  0.58561339    -0.00300
C3682       C  0.80885515  0.06092324  0.60817700    -0.02900
C3683       C  0.72980645  0.04182854  0.59850760     0.36400
C3684       C  0.85512127  0.06738199  0.58235728     0.40000
C3685       C  0.75780111  0.04125334  0.55319503     0.39100
C3686       C  0.82609744  0.06741233  0.62716661     0.36000
C3687       C  0.78016139  0.03186593  0.64243066     0.36700
C3688       C  0.72297682  0.07899248  0.67779827     0.40000
N3689       N  0.74324927  0.03577506  0.53878594    -0.38100
N3690       N  0.70445423  0.03671251  0.60207040    -0.39700
N3691       N  0.88058551  0.07262337  0.57991627    -0.37400
N3692       N  0.83972401  0.07260971  0.64231769    -0.39800
N3693       N  0.74228507  0.08670991  0.61854621    -0.39600
N3694       N  0.71232870  0.08867783  0.68499954    -0.37200
N3695       N  0.75864795  0.02362209  0.70101684    -0.38300
N3696       N  0.79160841  0.02232864  0.63519627    -0.39900
C3697       C  0.64212373  0.17541846  0.31196891    -0.04900
C3698       C  0.64762952  0.18702030  0.32462345     0.09300
C3699       C  0.64534907  0.19915215  0.31302038    -0.02300
C3700       C  0.63640932  0.19970754  0.28924239    -0.00500
C3701       C  0.62992502  0.18811568  0.27675293    -0.04100
C3702       C  0.63374181  0.17595322  0.28807031     0.02900
C3703       C  0.65643530  0.18645703  0.35008176     0.09700
C3704       C  0.65236956  0.21109306  0.32556673     0.35600
C3705       C  0.62802319  0.16396679  0.27535750     0.39100
C3706       C  0.68817175  0.18174674  0.35722987    -0.04500
C3707       C  0.69641700  0.18104633  0.38109854     0.02700
C3708       C  0.67376302  0.18578530  0.39812698    -0.04100
C3709       C  0.64214061  0.19069688  0.39091809    -0.00300
C3710       C  0.63325077  0.19074110  0.36706320    -0.02900
C3711       C  0.71271160  0.17784688  0.33992159     0.36400
C3712       C  0.61937142  0.19636010  0.40781337     0.40000
C3713       C  0.72807278  0.17513984  0.38807384     0.39100
C3714       C  0.60029577  0.19532850  0.35991602     0.36000
C3715       C  0.64461642  0.16290696  0.32367054     0.36700
C3716       C  0.63498267  0.21222896  0.27743182     0.40000
N3717       N  0.75323875  0.17037883  0.39366175    -0.38100
N3718       N  0.73226293  0.17475535  0.32610491    -0.39700
N3719       N  0.60132295  0.20097613  0.42125449    -0.37400
N3720       N  0.57404709  0.19901521  0.35415865    -0.39800
N3721       N  0.65780558  0.22061653  0.33560752    -0.39600
N3722       N  0.63398274  0.22220230  0.26797978    -0.37200
N3723       N  0.62352249  0.15440927  0.26519576    -0.38300
N3724       N  0.64682159  0.15293188  0.33301388    -0.39900
C3725       C  0.64882439  0.24216990  0.43908209    -0.04900
C3726       C  0.62833093  0.24682763  0.45726239     0.09300
C3727       C  0.62883438  0.24054144  0.47915029    -0.02300
C3728       C  0.64872552  0.22932567  0.48257266    -0.00500
C3729       C  0.66803731  0.22425520  0.46405380    -0.04100
C3730       C  0.66844885  0.23084370  0.44237456     0.02900
C3731       C  0.60522155  0.25811361  0.45328709     0.09700
C3732       C  0.60798812  0.24540603  0.49793906     0.35600
C3733       C  0.68693087  0.22545262  0.42287820     0.39100
C3734       C  0.57455405  0.25632460  0.44131127    -0.04500
C3735       C  0.55148086  0.26671831  0.43922707     0.02700
C3736       C  0.55877381  0.27887702  0.44942831    -0.04100
C3737       C  0.58977892  0.28070408  0.46108512    -0.00300
C3738       C  0.61307399  0.27039341  0.46271177    -0.02900
C3739       C  0.56645463  0.24368554  0.43160439     0.36400
C3740       C  0.59700339  0.29292814  0.47270934     0.40000
C3741       C  0.52041761  0.26495621  0.42638434     0.39100
C3742       C  0.64489141  0.27229540  0.47458083     0.36000
C3743       C  0.64884946  0.24883882  0.41677317     0.36700
C3744       C  0.64884757  0.22285387  0.50508267     0.40000
N3745       N  0.99540948  0.26339562  0.41672449    -0.38100
N3746       N  0.56005869  0.23359764  0.42385530    -0.39700
N3747       N  0.60277187  0.30262232  0.48212353    -0.37400
N3748       N  0.67025491  0.27378201  0.48407550    -0.39800
N3749       N  0.59136865  0.24933934  0.51287232    -0.39600
N3750       N  0.64890698  0.21766201  0.52300228    -0.37200
N3751       N  0.70145826  0.22112422  0.40726141    -0.38300
N3752       N  0.64874671  0.25416142  0.39897739    -0.39900
C3753       C  0.75661242  0.17786337  0.56700905    -0.04900
C3754       C  0.76875636  0.18964885  0.57647640     0.09300
C3755       C  0.76525897  0.20129479  0.56350103    -0.02300
C3756       C  0.75049455  0.20112978  0.54108547    -0.00500
C3757       C  0.73843422  0.18934320  0.53156993    -0.04100
C3758       C  0.74140776  0.17771669  0.54469886     0.02900
C3759       C  0.78595652  0.18982212  0.59988897     0.09700
C3760       C  0.77700244  0.21346807  0.57329338     0.35600
C3761       C  0.73038333  0.16547967  0.53471978     0.39100
C3762       C  0.82134867  0.19030844  0.60132232    -0.04500
C3763       C  0.83761231  0.19080398  0.62322843     0.02700
C3764       C  0.81867015  0.19077486  0.64408948    -0.04100
C3765       C  0.78310709  0.19037141  0.64257439    -0.00300
C3766       C  0.76693911  0.18984366  0.62060543    -0.02900
C3767       C  0.84108558  0.19023669  0.58012671     0.36400
C3768       C  0.76296863  0.18999844  0.66358503     0.40000
C3769       C  0.87394718  0.19172515  0.62419483     0.39100
C3770       C  0.73059673  0.18921985  0.61923949     0.36000
C3771       C  0.76049808  0.16582822  0.58003568     0.36700
C3772       C  0.74752584  0.21313789  0.52783580     0.40000
N3773       N  0.90292417  0.19248191  0.62501765    -0.38100
N3774       N  0.85680099  0.19019115  0.56319961    -0.39700
N3775       N  0.74682143  0.18967112  0.68031087    -0.37400
N3776       N  0.70161575  0.18865797  0.61805515    -0.39800
N3777       N  0.78641733  0.22314961  0.58121060    -0.39600
N3778       N  0.74520461  0.22270822  0.51723138    -0.37200
N3779       N  0.72168540  0.15574108  0.52662348    -0.38300
N3780       N  0.76360003  0.15621742  0.59042547    -0.39900
C3781       C  0.76300737  0.10002167  0.45325738    -0.04900
C3782       C  0.75471856  0.10921987  0.47055099     0.09300
C3783       C  0.75473111  0.10544769  0.49420920    -0.02300
C3784       C  0.76703165  0.09310492  0.50074640    -0.00500
C3785       C  0.77838632  0.08434683  0.48361857    -0.04100
C3786       C  0.77420009  0.08745926  0.45980578     0.02900
C3787       C  0.74848361  0.12318481  0.46444577     0.09700
C3788       C  0.74348260  0.11452686  0.51188249     0.35600
C3789       C  0.78326183  0.07804654  0.44210083     0.39100
C3790       C  0.71674909  0.12726392  0.45640132    -0.04500
C3791       C  0.70932366  0.14066457  0.45452387     0.02700
C3792       C  0.73354108  0.15011574  0.46112393    -0.04100
C3793       C  0.76618426  0.14594141  0.46754310    -0.00300
C3794       C  0.77363222  0.13251681  0.46898072    -0.02900
C3795       C  0.69144787  0.11764314  0.45066195     0.36400
C3796       C  0.79165701  0.15533635  0.47403719     0.40000
C3797       C  0.67657340  0.14464240  0.44582148     0.39100
C3798       C  0.80699260  0.12822599  0.47584427     0.36000
C3799       C  0.76171961  0.10372213  0.42888424     0.36700
C3800       C  0.76930471  0.08954592  0.52518027     0.40000
N3801       N  0.65042211  0.14780142  0.43895289    -0.38100
N3802       N  0.67134013  0.10996341  0.44596647    -0.39700
N3803       N  0.81201353  0.16281111  0.47925405    -0.37400
N3804       N  0.83356295  0.12474934  0.48128151    -0.39800
N3805       N  0.73445539  0.12179383  0.52592207    -0.39600
N3806       N  0.77120536  0.08664391  0.54462804    -0.37200
N3807       N  0.79025605  0.07054748  0.42788998    -0.38300
N3808       N  0.76064540  0.10669489  0.40944090    -0.39900
C3809       C  0.77578690  0.29821921  0.11164599    -0.04900
C3810       C  0.79554031  0.30566558  0.09609324     0.09300
C3811       C  0.82235403  0.31316939  0.10489066    -0.02300
C3812       C  0.82990228  0.31298025  0.12890220    -0.00500
C3813       C  0.80987105  0.30569342  0.14447558    -0.04100
C3814       C  0.78262524  0.29838878  0.13580527     0.02900
C3815       C  0.78769431  0.30583974  0.07049108     0.09700
C3816       C  0.84209089  0.32114696  0.08918062     0.35600
C3817       C  0.76246670  0.29064201  0.15163736     0.39100
C3818       C  0.75930400  0.31271282  0.06221659    -0.04500
C3819       C  0.75127782  0.31266241  0.03828811     0.02700
C3820       C  0.77189646  0.30589746  0.02229450    -0.04100
C3821       C  0.80114901  0.29950498  0.03039966    -0.00300
C3822       C  0.80879064  0.29933836  0.05445929    -0.02900
C3823       C  0.73839319  0.31990569  0.07839854     0.36400
C3824       C  0.82276890  0.29272675  0.01410632     0.40000
C3825       C  0.72204501  0.31983032  0.03007222     0.39100
C3826       C  0.83804155  0.29227072  0.06281173     0.36000
C3827       C  0.74886737  0.29015925  0.10269515     0.36700
C3828       C  0.85835178  0.32032139  0.13762383     0.40000
N3829       N  0.69875544  0.32556217  0.02355002    -0.38100
N3830       N  0.72174334  0.32562084  0.09134905    -0.39700
N3831       N  0.84004548  0.28736969  0.00105698    -0.37400
N3832       N  0.86142806  0.28666213  0.06949875    -0.39800
N3833       N  0.85778551  0.32748861  0.07658080    -0.39600
N3834       N  0.88114747  0.32610750  0.14458627    -0.37200
N3835       N  0.74638838  0.28446964  0.16427698    -0.38300
N3836       N  0.72741992  0.28371034  0.09554950    -0.39900
C3837       C  0.82354149  0.25348544  0.93415959    -0.04900
C3838       C  0.82743245  0.24676052  0.95543577     0.09300
C3839       C  0.80747483  0.25017384  0.97476678    -0.02300
C3840       C  0.78512799  0.26080519  0.97326079    -0.00500
C3841       C  0.78277560  0.26807744  0.95238230    -0.04100
C3842       C  0.80116666  0.26410353  0.93259982     0.02900
C3843       C  0.85244147  0.23596966  0.95751409     0.09700
C3844       C  0.81070234  0.24294459  0.99641213     0.35600
C3845       C  0.79689141  0.27090319  0.91059356     0.39100
C3846       C  0.88683223  0.23874455  0.96048737    -0.04500
C3847       C  0.91047637  0.22850978  0.96239843     0.02700
C3848       C  0.89966853  0.21534417  0.96209570    -0.04100
C3849       C  0.86456506  0.21273304  0.96021378    -0.00300
C3850       C  0.84145293  0.22299069  0.95711400    -0.02900
C3851       C  0.89775201  0.25220184  0.96177045     0.36400
C3852       C  0.85145097  0.19955745  0.96135700     0.40000
C3853       C  0.94568659  0.23170406  0.96536268     0.39100
C3854       C  0.80611822  0.22021070  0.95320505     0.36000
C3855       C  0.84293771  0.24955775  0.91399364     0.36700
C3856       C  0.76611305  0.26468435  0.99364387     0.40000
N3857       N  0.97370841  0.23438845  0.96764686    -0.38100
N3858       N  0.90633075  0.26294857  0.96283085    -0.39700
N3859       N  0.84070050  0.18910015  0.96230890    -0.37400
N3860       N  0.77799779  0.21802196  0.94998334    -0.39800
N3861       N  0.81323583  0.23712089  0.01361905    -0.39600
N3862       N  0.75095430  0.26777078  0.00989920    -0.37200
N3863       N  0.79334823  0.27628225  0.89301215    -0.38300
N3864       N  0.85849039  0.24642416  0.89794904    -0.39900
C3865       C  0.59226017  0.43057992  0.09231532    -0.04900
C3866       C  0.55986369  0.43390917  0.10026544     0.09300
C3867       C  0.53490951  0.43760464  0.08399984    -0.02300
C3868       C  0.54232123  0.43801722  0.05994836    -0.00500
C3869       C  0.57486805  0.43472421  0.05191373    -0.04100
C3870       C  0.59967842  0.43085551  0.06828113     0.02900
C3871       C  0.55210487  0.43358929  0.12584929     0.09700
C3872       C  0.50164750  0.44116041  0.09210570     0.35600
C3873       C  0.63264940  0.42674310  0.06041950     0.39100
C3874       C  0.05069241  0.44527125  0.13867116    -0.04500
C3875       C  0.04231169  0.44502185  0.16253523     0.02700
C3876       C  0.03528212  0.43305702  0.17383176    -0.04100
C3877       C  0.53825350  0.42132283  0.16127184    -0.00300
C3878       C  0.54611413  0.42160236  0.13727483    -0.02900
C3879       C  0.05763163  0.45758809  0.12720458     0.36400
C3880       C  0.53183030  0.40898910  0.17277992     0.40000
C3881       C  0.04144909  0.45711429  0.17557795     0.39100
C3882       C  0.54705419  0.40958743  0.12408943     0.36000
C3883       C  0.61813650  0.42704313  0.10901895     0.36700
C3884       C  0.51670864  0.44234701  0.04362556     0.40000
N3885       N  0.04089991  0.46677105  0.18592398    -0.38100
N3886       N  0.06305688  0.46741328  0.11802957    -0.39700
N3887       N  0.52675862  0.39914542  0.18198966    -0.37400
N3888       N  0.54775965  0.40003091  0.11346446    -0.39800
N3889       N  0.47516172  0.44406074  0.09858641    -0.39600
N3890       N  0.49633458  0.44582665  0.03059172    -0.37200
N3891       N  0.65889819  0.42339631  0.05415432    -0.38300
N3892       N  0.63869078  0.42425302  0.12242798    -0.39900
C3893       C  0.51824242  0.48800826  0.01026247    -0.04900
C3894       C  0.00065662  0.49283179  0.99075834     0.09300
C3895       C  0.00565346  0.48729417  0.96858156    -0.02300
C3896       C  0.52742505  0.47665465  0.96605519    -0.00500
C3897       C  0.54504393  0.47169514  0.98552693    -0.04100
C3898       C  0.54072507  0.47750083  0.00760273     0.02900
C3899       C  0.97773211  0.50424220  0.99350270     0.09700
C3900       C  0.98859836  0.49276935  0.94845168     0.35600
C3901       C  0.55843150  0.47238481  0.02778886     0.39100
C3902       C  0.99122224  0.51686509  0.99414559    -0.04500
C3903       C  0.96994286  0.52773338  0.99683427     0.02700
C3904       C  0.93438497  0.52611575  0.99784359    -0.04100
C3905       C  0.92110508  0.51328540  0.99730528    -0.00300
C3906       C  0.94281936  0.50243076  0.99550930    -0.02900
C3907       C  0.02723305  0.51864397  0.99165905     0.36400
C3908       C  0.88523360  0.51106344  0.99888303     0.40000
C3909       C  0.98538545  0.54050938  0.99829793     0.39100
C3910       C  0.92933559  0.48930997  0.99583801     0.36000
C3911       C  0.51269747  0.49362337  0.03309110     0.36700
C3912       C  0.53201248  0.47077623  0.94333695     0.40000
N3913       N  0.99803932  0.55061166  0.99973133    -0.38100
N3914       N  0.55589592  0.52019916  0.98949411    -0.39700
N3915       N  0.85662417  0.50917424  0.99996247    -0.37400
N3916       N  0.91871100  0.47883213  0.99619319    -0.39800
N3917       N  0.97504645  0.49720467  0.93242420    -0.39600
N3918       N  0.53569081  0.46604665  0.92525188    -0.37200
N3919       N  0.57253261  0.46837959  0.04394972    -0.38300
N3920       N  0.50816939  0.49809391  0.05129212    -0.39900
C3921       C  0.68330494  0.38911342  0.96344187    -0.04900
C3922       C  0.67155709  0.37894206  0.97783221     0.09300
C3923       C  0.64922847  0.38164986  0.99620517    -0.02300
C3924       C  0.63707477  0.39439637  0.99934233    -0.00500
C3925       C  0.64752106  0.40446372  0.98423652    -0.04100
C3926       C  0.67158220  0.40192270  0.96681318     0.02900
C3927       C  0.68261165  0.36530432  0.97359907     0.09700
C3928       C  0.63839798  0.37124619  0.01158341     0.35600
C3929       C  0.68310847  0.41234115  0.95169783     0.39100
C3930       C  0.71365518  0.36096164  0.98247896    -0.04500
C3931       C  0.72439371  0.34812387  0.97831132     0.02700
C3932       C  0.70385097  0.33950707  0.96538361    -0.04100
C3933       C  0.67239189  0.34381509  0.95690920    -0.00300
C3934       C  0.66188138  0.35673284  0.96092860    -0.02900
C3935       C  0.73432797  0.36971436  0.99614498     0.36400
C3936       C  0.65134111  0.33514575  0.94338939     0.40000
C3937       C  0.75625253  0.34372927  0.98794450     0.39100
C3938       C  0.62985040  0.36128431  0.95190555     0.36000
C3939       C  0.70657966  0.38628803  0.94471146     0.36700
C3940       C  0.61383566  0.39718709  0.01813362     0.40000
N3941       N  0.78166629  0.34025269  0.99561158    -0.38100
N3942       N  0.75070761  0.37671138  0.00707515    -0.39700
N3943       N  0.63446990  0.32826249  0.93259027    -0.37400
N3944       N  0.60429576  0.36494056  0.94475586    -0.39800
N3945       N  0.62982314  0.36291318  0.02380129    -0.39600
N3946       N  0.59537821  0.39943697  0.03314322    -0.37200
N3947       N  0.69242349  0.42064780  0.93968204    -0.38300
N3948       N  0.72508929  0.38401218  0.92974719    -0.39900
C3949       C  0.54383187  0.30013796  0.55668358    -0.04900
C3950       C  0.54788668  0.31222347  0.56791392     0.09300
C3951       C  0.54473473  0.32388710  0.55498970    -0.02300
C3952       C  0.53592268  0.32347958  0.53113326    -0.00500
C3953       C  0.53004210  0.31136500  0.52018121    -0.04100
C3954       C  0.03535024  0.29966225  0.53295464     0.02900
C3955       C  0.55569908  0.31248448  0.59342546     0.09700
C3956       C  0.55016033  0.33628513  0.56639872     0.35600
C3957       C  0.03269275  0.28713409  0.52142760     0.39100
C3958       C  0.58928608  0.31278723  0.60103013    -0.04500
C3959       C  0.59698630  0.31154278  0.62492413     0.02700
C3960       C  0.57098918  0.30967455  0.64157616    -0.04100
C3961       C  0.53708238  0.31004832  0.63383400    -0.00300
C3962       C  0.52961065  0.31147419  0.60988288    -0.02900
C3963       C  0.61602423  0.31418853  0.58407276     0.36400
C3964       C  0.50961754  0.30861531  0.65018947     0.40000
C3965       C  0.63185919  0.31248265  0.63214517     0.39100
C3966       C  0.99487675  0.31147629  0.60195946     0.36000
C3967       C  0.54853416  0.28812628  0.56971034     0.36700
C3968       C  0.53157086  0.33553867  0.51822530     0.40000
N3969       N  0.65969703  0.31323733  0.63782491    -0.38100
N3970       N  0.63728401  0.31531910  0.57051320    -0.39700
N3971       N  0.48756719  0.30753773  0.66314963    -0.37400
N3972       N  0.96730521  0.31159815  0.59553382    -0.39800
N3973       N  0.55462398  0.34615913  0.57555589    -0.39600
N3974       N  0.52799184  0.34517874  0.50799113    -0.37200
N3975       N  0.03070689  0.27716278  0.51217758    -0.38300
N3976       N  0.55231354  0.27856811  0.58014735    -0.39900
C3977       C  0.51413032  0.25229600  0.72468589    -0.04900
C3978       C  0.50876025  0.24666519  0.70260001     0.09300
C3979       C  0.52604630  0.25158486  0.68305361    -0.02300
C3980       C  0.54715442  0.26254357  0.68531733    -0.00500
C3981       C  0.55117279  0.26860706  0.70721056    -0.04100
C3982       C  0.53532768  0.26322128  0.72699713     0.02900
C3983       C  0.98327007  0.23593144  0.69936743     0.09700
C3984       C  0.52123298  0.24557627  0.66048245     0.35600
C3985       C  0.54096852  0.26891464  0.74975574     0.39100
C3986       C  0.94982533  0.23910395  0.69344464    -0.04500
C3987       C  0.92524350  0.22925351  0.69183505     0.02700
C3988       C  0.93365044  0.21611242  0.69687411    -0.04100
C3989       C  0.96762358  0.21294621  0.70218914    -0.00300
C3990       C  0.99225424  0.22281439  0.70318346    -0.02900
C3991       C  0.94061050  0.25262304  0.68952922     0.36400
C3992       C  0.97730673  0.19966098  0.70784775     0.40000
C3993       C  0.89141482  0.23270498  0.68461813     0.39100
C3994       C  0.52686663  0.21961910  0.70865402     0.36000
C3995       C  0.49708313  0.24702286  0.74490705     0.36700
C3996       C  0.56312791  0.26803737  0.66485012     0.40000
N3997       N  0.86447893  0.23547607  0.67877259    -0.38100
N3998       N  0.93338814  0.26343068  0.68653107    -0.39700
N3999       N  0.98510209  0.18907700  0.71238916    -0.37400
N4000       N  0.55449503  0.21696484  0.71286961    -0.39800
N4001       N  0.51734073  0.24075847  0.64249427    -0.39600
N4002       N  0.57580118  0.27245679  0.64852840    -0.37200
N4003       N  0.54564341  0.27343181  0.76790855    -0.38300
N4004       N  0.98317580  0.24261072  0.76060798    -0.39900
C4005       C  0.65365390  0.29958400  0.86381371    -0.04900
C4006       C  0.67408814  0.30166719  0.84423349     0.09300
C4007       C  0.70865860  0.30402116  0.84726427    -0.02300
C4008       C  0.72301092  0.30406578  0.86982960    -0.00500
C4009       C  0.70256379  0.30210945  0.88983824    -0.04100
C4010       C  0.66748612  0.29995098  0.88644354     0.02900
C4011       C  0.65883192  0.30146006  0.82035323     0.09700
C4012       C  0.72940512  0.30652272  0.82700144     0.35600
C4013       C  0.64482444  0.29834189  0.90600908     0.39100
C4014       C  0.64280398  0.31268399  0.81139596    -0.04500
C4015       C  0.62783666  0.31246101  0.78910316     0.02700
C4016       C  0.62839439  0.30090849  0.77567290    -0.04100
C4017       C  0.64418027  0.28962625  0.78483672    -0.00300
C4018       C  0.65940957  0.28992825  0.80705905    -0.02900
C4019       C  0.64202924  0.32451696  0.82513734     0.36400
C4020       C  0.64420889  0.27760646  0.77161388     0.40000
C4021       C  0.61353924  0.32436488  0.77956072     0.39100
C4022       C  0.67566010  0.27836025  0.81636502     0.36000
C4023       C  0.61805401  0.29710153  0.86055266     0.36700
C4024       C  0.75899028  0.30587877  0.87205196     0.40000
N4025       N  0.60240205  0.33389561  0.77191610    -0.38100
N4026       N  0.64136683  0.33392875  0.83616959    -0.39700
N4027       N  0.64417539  0.26801873  0.76106269    -0.37400
N4028       N  0.68870905  0.26915809  0.82383722    -0.39800
N4029       N  0.74582859  0.30857358  0.81080621    -0.39600
N4030       N  0.78773267  0.30731185  0.87364440    -0.37200
N4031       N  0.62651225  0.29702976  0.92146088    -0.38300
N4032       N  0.58970638  0.29512538  0.85787302    -0.39900
C4033       C  0.77377366  0.44369743  0.57981243    -0.04900
C4034       C  0.79423804  0.43695350  0.59600778     0.09300
C4035       C  0.82207896  0.42971437  0.58803647    -0.02300
C4036       C  0.83026481  0.42965014  0.56415582    -0.00500
C4037       C  0.81028532  0.43665046  0.54799035    -0.04100
C4038       C  0.78131153  0.44329496  0.55580529     0.02900
C4039       C  0.78587899  0.43711793  0.62143900     0.09700
C4040       C  0.84223322  0.42230247  0.60449506     0.35600
C4041       C  0.75962434  0.44995612  0.53925546     0.39100
C4042       C  0.75967813  0.42923356  0.62999392    -0.04500
C4043       C  0.75113313  0.42956049  0.65378947     0.02700
C4044       C  0.76933626  0.43752345  0.66935701    -0.04100
C4045       C  0.79624341  0.44512191  0.66095826    -0.00300
C4046       C  0.80426866  0.44502029  0.63699926    -0.02900
C4047       C  0.74158178  0.42073774  0.61423416     0.36400
C4048       C  0.81485418  0.45339776  0.67680423     0.40000
C4049       C  0.72360644  0.42162519  0.66224989     0.39100
C4050       C  0.83102199  0.45322276  0.62822011     0.36000
C4051       C  0.74542245  0.45131412  0.58796345     0.36700
C4052       C  0.85870410  0.42202979  0.55611019     0.40000
N4053       N  0.70154265  0.41530135  0.66883462    -0.38100
N4054       N  0.72723480  0.41395807  0.60162339    -0.39700
N4055       N  0.82974808  0.45998672  0.68943999    -0.37400
N4056       N  0.85234872  0.45976545  0.62116120    -0.39800
N4057       N  0.85821596  0.41640733  0.61770529    -0.39600
N4058       N  0.88127533  0.41589384  0.54968532    -0.37200
N4059       N  0.74216667  0.45519645  0.52605748    -0.38300
N4060       N  0.72289632  0.45744241  0.59448080    -0.39900
C4061       C  0.80462072  0.49385115  0.71647797    -0.04900
C4062       C  0.82929571  0.49607851  0.73364436     0.09300
C4063       C  0.83073769  0.48798322  0.75348574    -0.02300
C4064       C  0.80805830  0.47755043  0.75601015    -0.00500
C4065       C  0.78426614  0.47482984  0.73829734    -0.04100
C4066       C  0.78223954  0.48324711  0.71869511     0.02900
C4067       C  0.85341844  0.50718170  0.73136890     0.09700
C4068       C  0.85617778  0.49027883  0.77113137     0.35600
C4069       C  0.75838490  0.48069197  0.70014601     0.39100
C4070       C  0.84626012  0.51912183  0.74234878    -0.04500
C4071       C  0.87012533  0.52923477  0.74221043     0.02700
C4072       C  0.90149988  0.52749382  0.73099931    -0.04100
C4073       C  0.90835004  0.51561268  0.71955193    -0.00300
C4074       C  0.88430386  0.50550060  0.71968470    -0.02900
C4075       C  0.81447352  0.52086694  0.75428004     0.36400
C4076       C  0.93984638  0.51386871  0.70729167     0.40000
C4077       C  0.86286126  0.54120700  0.75464712     0.39100
C4078       C  0.89136817  0.49328922  0.70803376     0.36000
C4079       C  0.80283870  0.50233972  0.69627458     0.36700
C4080       C  0.80902850  0.46974306  0.77710785     0.40000
N4081       N  0.85706115  0.55074289  0.76458986    -0.38100
N4082       N  0.78913567  0.52222673  0.76381243    -0.39700
N4083       N  0.96496524  0.51249638  0.69748561    -0.37400
N4084       N  0.89688316  0.48353641  0.69870697    -0.39800
N4085       N  0.87663215  0.49212372  0.78507019    -0.39600
N4086       N  0.80981381  0.46357256  0.79400352    -0.37200
N4087       N  0.73940529  0.47867043  0.68531042    -0.38300
N4088       N  0.80148702  0.50911605  0.68015033    -0.39900
C4089       C  0.70367866  0.43908608  0.84389419    -0.04900
C4090       C  0.66885140  0.44107785  0.84658928     0.09300
C4091       C  0.64874117  0.44316667  0.82675431    -0.02300
C4092       C  0.66316128  0.44321990  0.80427554    -0.00500
C4093       C  0.69843105  0.44134072  0.80125003    -0.04100
C4094       C  0.71850378  0.43931201  0.82148547     0.02900
C4095       C  0.65324028  0.44108010  0.87042431     0.09700
C4096       C  0.61289601  0.44526000  0.82958188     0.35600
C4097       C  0.75460778  0.43771973  0.81964489     0.39100
C4098       C  0.65117751  0.45273493  0.88331909    -0.04500
C4099       C  0.63711226  0.45272448  0.90590743     0.02700
C4100       C  0.62509140  0.44101244  0.91591470    -0.04100
C4101       C  0.62625308  0.42940411  0.90261926    -0.00300
C4102       C  0.64014869  0.42947700  0.87997244    -0.02900
C4103       C  0.66352141  0.46476317  0.87321584     0.36400
C4104       C  0.61464855  0.41720917  0.91255567     0.40000
C4105       C  0.63423256  0.46486934  0.91860664     0.39100
C4106       C  0.64125285  0.41757030  0.86645868     0.36000
C4107       C  0.72427676  0.43677462  0.86437464     0.36700
C4108       C  0.64095959  0.44501635  0.78444215     0.40000
N4109       N  0.63177948  0.47455796  0.92872352    -0.38100
N4110       N  0.67335390  0.47434271  0.86506330    -0.39700
N4111       N  0.60552421  0.40746367  0.92048803    -0.37400
N4112       N  0.64205178  0.40809487  0.85560522    -0.39800
N4113       N  0.58433950  0.44694079  0.83188293    -0.39600
N4114       N  0.62299745  0.44652484  0.76878365    -0.37200
N4115       N  0.78343809  0.43643343  0.81835765    -0.38300
N4116       N  0.74058585  0.43490115  0.88075677    -0.39900
C4117       C  0.65238338  0.38818345  0.72896590    -0.04900
C4118       C  0.67328945  0.37878491  0.71835120     0.09300
C4119       C  0.70564737  0.38235583  0.71078620    -0.02300
C4120       C  0.71759669  0.39507815  0.71461847    -0.00500
C4121       C  0.69691091  0.40450627  0.72560707    -0.04100
C4122       C  0.66394284  0.40104511  0.73227909     0.02900
C4123       C  0.66144028  0.36505404  0.71526675     0.09700
C4124       C  0.72661036  0.37290010  0.69887789     0.35600
C4125       C  0.64210447  0.41053732  0.74320173     0.39100
C4126       C  0.63671929  0.36213505  0.69841871    -0.04500
C4127       C  0.62507842  0.34925670  0.69592052     0.02700
C4128       C  0.63863143  0.33917092  0.70988238    -0.04100
C4129       C  0.66436918  0.34196983  0.72602260    -0.00300
C4130       C  0.67532568  0.35491319  0.72899514    -0.02900
C4131       C  0.62319958  0.37241105  0.68371149     0.36400
C4132       C  0.67878210  0.33161356  0.74015289     0.40000
C4133       C  0.59948087  0.34631934  0.67869369     0.39100
C4134       C  0.70035181  0.35786118  0.74658959     0.36000
C4135       C  0.61908391  0.38453942  0.73681915     0.36700
C4136       C  0.75098252  0.39849764  0.70653023     0.40000
N4137       N  0.57912379  0.34393454  0.66495082    -0.38100
N4138       N  0.61234289  0.38063541  0.67206573    -0.39700
N4139       N  0.69038834  0.32335638  0.75137513    -0.37400
N4140       N  0.72033618  0.36022142  0.76060197    -0.39800
N4141       N  0.74328587  0.36533240  0.68943025    -0.39600
N4142       N  0.77759340  0.40119422  0.70006754    -0.37200
N4143       N  0.62433175  0.41802937  0.75183491    -0.38300
N4144       N  0.59248366  0.38163181  0.74299335    -0.39900
C4145       C  0.50725702  0.81374612  0.09950964    -0.04900
C4146       C  0.53590142  0.80662983  0.10663330     0.09300
C4147       C  0.55616567  0.80051457  0.08963918    -0.02300
C4148       C  0.54723718  0.80118143  0.06579282    -0.00500
C4149       C  0.01683589  0.80788134  0.05927864    -0.04100
C4150       C  0.99743303  0.81434682  0.07635466     0.02900
C4151       C  0.54452618  0.80564222  0.13209725     0.09700
C4152       C  0.58573145  0.79323806  0.09679086     0.35600
C4153       C  0.96810443  0.82188183  0.06948901     0.39100
C4154       C  0.52530199  0.79765094  0.14709577    -0.04500
C4155       C  0.53239119  0.79719161  0.17123613     0.02700
C4156       C  0.55931970  0.80446393  0.18047127    -0.04100
C4157       C  0.57862277  0.81241383  0.16543456    -0.00300
C4158       C  0.57107541  0.81307791  0.14142482    -0.02900
C4159       C  0.99900615  0.78939356  0.13778431     0.36400
C4160       C  0.60591562  0.82017332  0.17475406     0.40000
C4161       C  0.51258812  0.78894639  0.18644731     0.39100
C4162       C  0.59050537  0.82150659  0.12628524     0.36000
C4163       C  0.48681844  0.82034692  0.11674414     0.36700
C4164       C  0.56766502  0.79453116  0.04861342     0.40000
N4165       N  0.99821671  0.78159122  0.19867495    -0.38100
N4166       N  0.97785482  0.78301916  0.13002677    -0.39700
N4167       N  0.62769018  0.82637406  0.18213058    -0.37400
N4168       N  0.60605010  0.82819652  0.11417970    -0.39800
N4169       N  0.60936864  0.78745180  0.10249831    -0.39600
N4170       N  0.58397176  0.78922125  0.03492150    -0.37200
N4171       N  0.94478429  0.82791876  0.06397958    -0.38300
N4172       N  0.47045915  0.82553299  0.13054918    -0.39900
C4173       C  0.01066737  0.75186949  0.27483412    -0.04900
C4174       C  0.00587639  0.74454374  0.25436703     0.09300
C4175       C  0.02496314  0.74746267  0.23432770    -0.02300
C4176       C  0.54606642  0.75865056  0.23353127    -0.00500
C4177       C  0.54905424  0.76649422  0.25360193    -0.04100
C4178       C  0.53220486  0.76280330  0.27424142     0.02900
C4179       C  0.97972242  0.73407548  0.25364672     0.09700
C4180       C  0.02105381  0.73960949  0.21355566     0.35600
C4181       C  0.53687194  0.77029389  0.29539105     0.39100
C4182       C  0.94552730  0.73739143  0.25088635    -0.04500
C4183       C  0.92066952  0.72758953  0.25031909     0.02700
C4184       C  0.92981902  0.71425825  0.25233327    -0.04100
C4185       C  0.96463712  0.71101858  0.25413717    -0.00300
C4186       C  0.98916130  0.72089482  0.25530823    -0.02900
C4187       C  0.93599476  0.75098806  0.24844790     0.36400
C4188       C  0.97598424  0.69755823  0.25467647     0.40000
C4189       C  0.88590247  0.73134536  0.24672464     0.39100
C4190       C  0.02431861  0.71751610  0.25851961     0.36000
C4191       C  0.99260205  0.74840621  0.29585873     0.36700
C4192       C  0.56355546  0.76221310  0.21233130     0.40000
N4193       N  0.85822714  0.73444125  0.24379922    -0.38100
N4194       N  0.92852083  0.76184145  0.24651507    -0.39700
N4195       N  0.98535090  0.68687073  0.25474985    -0.37400
N4196       N  0.55264349  0.71504390  0.25963070    -0.39800
N4197       N  0.01793652  0.73328283  0.19705820    -0.39600
N4198       N  0.57744713  0.76506586  0.19539026    -0.37200
N4199       N  0.54069032  0.77627415  0.31223266    -0.38300
N4200       N  0.97815313  0.74562114  0.31260907    -0.39900
C4201       C  0.81650723  0.93582658  0.09997955    -0.04900
C4202       C  0.78264720  0.93476601  0.10681791     0.09300
C4203       C  0.75742836  0.93412435  0.08953208    -0.02300
C4204       C  0.76593051  0.93473336  0.06558489    -0.00500
C4205       C  0.79995208  0.93585164  0.05859014    -0.04100
C4206       C  0.82521111  0.93620805  0.07612213     0.02900
C4207       C  0.77360588  0.93484828  0.13231179     0.09700
C4208       C  0.72256348  0.93300174  0.09648217     0.35600
C4209       C  0.86048420  0.93648857  0.06980655     0.39100
C4210       C  0.76853592  0.94679651  0.14387197    -0.04500
C4211       C  0.76015994  0.94700420  0.16776921     0.02700
C4212       C  0.75655819  0.93523291  0.18049094    -0.04100
C4213       C  0.76312618  0.92327566  0.16914852    -0.00300
C4214       C  0.77133610  0.92309599  0.14511640    -0.02900
C4215       C  0.77218330  0.95892951  0.13111106     0.36400
C4216       C  0.76077798  0.91113836  0.18199595     0.40000
C4217       C  0.75648794  0.95943619  0.17949166     0.39100
C4218       C  0.77738319  0.91081878  0.13342673     0.36000
C4219       C  0.84247700  0.93662994  0.11767326     0.36700
C4220       C  0.73935995  0.93467089  0.04829654     0.40000
N4221       N  0.75377808  0.96935305  0.18884865    -0.38100
N4222       N  0.77519470  0.96860099  0.12092296    -0.39700
N4223       N  0.75896279  0.90142297  0.19219860    -0.37400
N4224       N  0.78224653  0.90105457  0.12397429    -0.39800
N4225       N  0.69474412  0.93208799  0.10203960    -0.39600
N4226       N  0.71796845  0.93463101  0.03462814    -0.37200
N4227       N  0.88863237  0.93665817  0.06481624    -0.38300
N4228       N  0.86308442  0.93732385  0.13185136    -0.39900
C4229       C  0.84046260  0.97863687  0.23708352    -0.04900
C4230       C  0.83154714  0.99081395  0.24651121     0.09300
C4231       C  0.79926397  0.99265621  0.25612924    -0.02300
C4232       C  0.77605897  0.98229552  0.25657141    -0.00500
C4233       C  0.78510184  0.97002694  0.24741960    -0.04100
C4234       C  0.81725112  0.96831620  0.23727746     0.02900
C4235       C  0.85573474  0.00189836  0.24548220     0.09700
C4236       C  0.79002123  0.00524732  0.26559572     0.35600
C4237       C  0.82610889  0.95610517  0.22610785     0.39100
C4238       C  0.85971933  0.00892054  0.22453486    -0.04500
C4239       C  0.88066103  0.01994167  0.22386616     0.02700
C4240       C  0.89759945  0.02406929  0.24421673    -0.04100
C4241       C  0.89477380  0.01668223  0.26492561    -0.00300
C4242       C  0.87393570  0.00558792  0.26550537    -0.02900
C4243       C  0.84150264  0.00497722  0.20381925     0.36400
C4244       C  0.91150876  0.02093992  0.28601936     0.40000
C4245       C  0.88454819  0.02711354  0.20220628     0.39100
C4246       C  0.87043835  0.99813326  0.28685476     0.36000
C4247       C  0.87360785  0.97676281  0.22713465     0.36700
C4248       C  0.74321505  0.98419979  0.26691797     0.40000
N4249       N  0.88762742  0.03285208  0.18496665    -0.38100
N4250       N  0.82698450  0.00178150  0.18732861    -0.39700
N4251       N  0.92476701  0.02436551  0.30286727    -0.37400
N4252       N  0.86751742  0.99217669  0.30386772    -0.39800
N4253       N  0.78278379  0.01529608  0.27320435    -0.39600
N4254       N  0.71696445  0.98570251  0.27511763    -0.37200
N4255       N  0.83316469  0.94640819  0.21708926    -0.38300
N4256       N  0.90003357  0.97529235  0.21919012    -0.39900
C4257       C  0.64966437  0.88634471  0.26155761    -0.04900
C4258       C  0.64973388  0.87984367  0.23989294     0.09300
C4259       C  0.65782606  0.88682439  0.21940595    -0.02300
C4260       C  0.66676711  0.90008459  0.22071656    -0.00500
C4261       C  0.66952399  0.90619521  0.24257456    -0.04100
C4262       C  0.66019087  0.89941455  0.26293990     0.02900
C4263       C  0.64129582  0.86564581  0.23880331     0.09700
C4264       C  0.65834590  0.88022902  0.19711188     0.35600
C4265       C  0.66196351  0.90586196  0.28536415     0.39100
C4266       C  0.61060782  0.86160806  0.22890593    -0.04500
C4267       C  0.60183485  0.84832810  0.22898287     0.02700
C4268       C  0.62300287  0.83901603  0.23991629    -0.04100
C4269       C  0.65399386  0.84302296  0.24948200    -0.00300
C4270       C  0.66339840  0.85625848  0.24849121    -0.02900
C4271       C  0.58758130  0.87118454  0.21918445     0.36400
C4272       C  0.67526593  0.83371349  0.26164331     0.40000
C4273       C  0.57103778  0.84426331  0.21755856     0.39100
C4274       C  0.69557615  0.86028077  0.25789273     0.36000
C4275       C  0.63951335  0.87947018  0.28249747     0.36700
C4276       C  0.67417839  0.90735330  0.19965511     0.40000
N4277       N  0.54655430  0.84101761  0.20838339    -0.38100
N4278       N  0.56929991  0.87883548  0.21139286    -0.39700
N4279       N  0.69204526  0.82628795  0.27149652    -0.37400
N4280       N  0.72119910  0.86349403  0.26545913    -0.39800
N4281       N  0.65876931  0.87496514  0.17932670    -0.39600
N4282       N  0.67966506  0.91320901  0.18284164    -0.37200
N4283       N  0.66334070  0.91100314  0.30324445    -0.38300
N4284       N  0.63153262  0.87393209  0.29916749    -0.39900
C4285       C  0.79319086  0.81212581  0.59677857    -0.04900
C4286       C  0.76863641  0.81777442  0.61140409     0.09300
C4287       C  0.73942029  0.82322650  0.60135474    -0.02300
C4288       C  0.73426029  0.82265837  0.57702650    -0.00500
C4289       C  0.75781832  0.81626372  0.56249419    -0.04100
C4290       C  0.78771184  0.81126448  0.57246259     0.02900
C4291       C  0.77284046  0.81738871  0.63747408     0.09700
C4292       C  0.71419838  0.82913224  0.61617781     0.35600
C4293       C  0.81208216  0.80463748  0.55793514     0.39100
C4294       C  0.78377370  0.82849436  0.64981485    -0.04500
C4295       C  0.78882909  0.82787290  0.67422264     0.02700
C4296       C  0.78386597  0.81602590  0.68636490    -0.04100
C4297       C  0.77193691  0.80504846  0.67408913    -0.00300
C4298       C  0.76607460  0.80577635  0.64984659    -0.02900
C4299       C  0.79078745  0.84043953  0.63721837     0.36400
C4300       C  0.76561720  0.79296267  0.68649762     0.40000
C4301       C  0.80045976  0.83928408  0.68664348     0.39100
C4302       C  0.75326518  0.79452081  0.63751221     0.36000
C4303       C  0.82389878  0.80699201  0.60690538     0.36700
C4304       C  0.70482834  0.82886902  0.56689631     0.40000
N4305       N  0.80967684  0.84842203  0.69650162    -0.38100
N4306       N  0.79642205  0.84994396  0.62707578    -0.39700
N4307       N  0.76062179  0.78334499  0.69646557    -0.37400
N4308       N  0.74298763  0.78556824  0.62762125    -0.39800
N4309       N  0.69406437  0.83382324  0.62802150    -0.39600
N4310       N  0.68148361  0.83387514  0.55875346    -0.37200
N4311       N  0.83146091  0.79932286  0.54632454    -0.38300
N4312       N  0.84840963  0.80292784  0.61505200    -0.39900
C4313       C  0.78827903  0.75670759  0.52857796    -0.04900
C4314       C  0.80951197  0.75142274  0.51137460     0.09300
C4315       C  0.81078076  0.75723758  0.48910203    -0.02300
C4316       C  0.79176012  0.76853769  0.48425310    -0.00500
C4317       C  0.77141906  0.77416195  0.50172111    -0.04100
C4318       C  0.76950543  0.76811982  0.52386904     0.02900
C4319       C  0.83182132  0.74003339  0.51678335     0.09700
C4320       C  0.83236889  0.75171026  0.47133588     0.35600
C4321       C  0.75026888  0.77415877  0.54238472     0.39100
C4322       C  0.81977628  0.72723944  0.51426650    -0.04500
C4323       C  0.84191842  0.71652435  0.51646026     0.02700
C4324       C  0.87652701  0.71854382  0.52149783    -0.04100
C4325       C  0.88796382  0.73144600  0.52527336    -0.00300
C4326       C  0.86572557  0.74210404  0.52280632    -0.02900
C4327       C  0.78462856  0.72515978  0.50867276     0.36400
C4328       C  0.92263868  0.73388262  0.53172670     0.40000
C4329       C  0.82904681  0.70354081  0.51215531     0.39100
C4330       C  0.87781976  0.75530345  0.52597007     0.36000
C4331       C  0.78659039  0.75059937  0.55134325     0.36700
C4332       C  0.79336499  0.77443767  0.46128579     0.40000
N4333       N  0.81860567  0.69321184  0.50866421    -0.38100
N4334       N  0.75657947  0.72353682  0.50427526    -0.39700
N4335       N  0.95029188  0.73586220  0.53680777    -0.37400
N4336       N  0.88736388  0.76585227  0.52842975    -0.39800
N4337       N  0.84973046  0.74728003  0.45727697    -0.39600
N4338       N  0.79468467  0.77915446  0.44298000    -0.37200
N4339       N  0.73515531  0.77904256  0.55719300    -0.38300
N4340       N  0.78517212  0.74569817  0.56948820    -0.39900
C4341       C  0.66134475  0.79322117  0.34412081    -0.04900
C4342       C  0.65652006  0.80427546  0.35831450     0.09300
C4343       C  0.63556324  0.81448266  0.35027682    -0.02300
C4344       C  0.61979793  0.81370692  0.32818630    -0.00500
C4345       C  0.62458309  0.80261507  0.31389635    -0.04100
C4346       C  0.64528086  0.79232139  0.32220817     0.02900
C4347       C  0.67217581  0.80479925  0.38224927     0.09700
C4348       C  0.63028672  0.82583171  0.36481218     0.35600
C4349       C  0.64947081  0.78056321  0.30852857     0.39100
C4350       C  0.70054958  0.81263010  0.38670545    -0.04500
C4351       C  0.71503163  0.81306653  0.40929293     0.02700
C4352       C  0.70126538  0.80560142  0.42787704    -0.04100
C4353       C  0.67336382  0.79739092  0.42288748    -0.00300
C4354       C  0.65873269  0.79720778  0.40043987    -0.02900
C4355       C  0.71460511  0.82039370  0.36797492     0.36400
C4356       C  0.65965446  0.78880043  0.44057588     0.40000
C4357       C  0.74368618  0.82147270  0.41320523     0.39100
C4358       C  0.62922075  0.78929849  0.39605206     0.36000
C4359       C  0.68302099  0.78272942  0.35213308     0.36700
C4360       C  0.59965955  0.82458573  0.31992078     0.40000
N4361       N  0.76662843  0.82817285  0.41615922    -0.38100
N4362       N  0.72564600  0.82663579  0.35303706    -0.39700
N4363       N  0.64855769  0.78192148  0.45457335    -0.37400
N4364       N  0.60567950  0.78302552  0.39245724    -0.39800
N4365       N  0.62622237  0.83489820  0.37640683    -0.39600
N4366       N  0.58361192  0.83327579  0.31333376    -0.37200
N4367       N  0.65277913  0.77118136  0.29763564    -0.38300
N4368       N  0.70027175  0.77436083  0.35857593    -0.39900
C4369       C  0.56169059  0.92698460  0.65327368    -0.04900
C4370       C  0.56759205  0.93942633  0.64359684     0.09300
C4371       C  0.56719410  0.95045160  0.65820567    -0.02300
C4372       C  0.55912540  0.94913513  0.68204785    -0.00500
C4373       C  0.55139154  0.93676459  0.69152519    -0.04100
C4374       C  0.55347450  0.92565599  0.67711860     0.02900
C4375       C  0.57311381  0.94099361  0.61784851     0.09700
C4376       C  0.57452122  0.96319451  0.64852563     0.35600
C4377       C  0.54527337  0.91292454  0.68636884     0.39100
C4378       C  0.54551039  0.94290177  0.60274450    -0.04500
C4379       C  0.55056424  0.94469042  0.57855787     0.02700
C4380       C  0.58343408  0.94436083  0.56907988    -0.04100
C4381       C  0.61105711  0.94226099  0.58441909    -0.00300
C4382       C  0.60583973  0.94071407  0.60861544    -0.02900
C4383       C  0.01082776  0.94230374  0.61210332     0.36400
C4384       C  0.64501310  0.94127768  0.57544317     0.40000
C4385       C  0.52182654  0.94732395  0.56368789     0.39100
C4386       C  0.63422303  0.93880486  0.62415897     0.36000
C4387       C  0.56334545  0.91557846  0.63847929     0.36700
C4388       C  0.55852487  0.96056690  0.69682593     0.40000
N4389       N  0.49885175  0.94945367  0.55187813    -0.38100
N4390       N  0.98393930  0.94215728  0.61971687    -0.39700
N4391       N  0.67213735  0.94049418  0.56835465    -0.37400
N4392       N  0.65680951  0.93730830  0.63661008    -0.39800
N4393       N  0.58043797  0.97334340  0.64074109    -0.39600
N4394       N  0.55809153  0.96971409  0.70854415    -0.37200
N4395       N  0.04406873  0.90267650  0.69497708    -0.38300
N4396       N  0.56476539  0.90649041  0.62664477    -0.39900
C4397       C  0.52058812  0.99794577  0.52573564    -0.04900
C4398       C  0.49936324  0.00143707  0.50698609     0.09300
C4399       C  0.50373755  0.99542572  0.48511678    -0.02300
C4400       C  0.52867974  0.98580645  0.48211595    -0.00500
C4401       C  0.54880174  0.98182596  0.50112561    -0.04100
C4402       C  0.54503599  0.98806040  0.52289653     0.02900
C4403       C  0.97183002  0.01145961  0.51024027     0.09700
C4404       C  0.97971531  0.99845930  0.46646261     0.35600
C4405       C  0.56490368  0.98378760  0.54272910     0.39100
C4406       C  0.97693561  0.02412229  0.50144893    -0.04500
C4407       C  0.95043085  0.03325650  0.50133398     0.02700
C4408       C  0.91851316  0.02988790  0.51048028    -0.04100
C4409       C  0.91379185  0.01729600  0.52002011    -0.00300
C4410       C  0.94037549  0.00811588  0.51984771    -0.02900
C4411       C  0.50965918  0.02767734  0.49108614     0.36400
C4412       C  0.88172241  0.01377504  0.53014326     0.40000
C4413       C  0.95566936  0.04585192  0.49036176     0.39100
C4414       C  0.93523131  0.99509878  0.52903927     0.36000
C4415       C  0.51673394  0.00434392  0.54804416     0.36700
C4416       C  0.53376540  0.97998748  0.45940163     0.40000
N4417       N  0.95981880  0.05586895  0.48152708    -0.38100
N4418       N  0.53544557  0.03046161  0.48328908    -0.39700
N4419       N  0.85614706  0.01094823  0.53822995    -0.37400
N4420       N  0.93125455  0.98470086  0.53636782    -0.39800
N4421       N  0.96156341  0.00114563  0.45142238    -0.39600
N4422       N  0.53806345  0.97538943  0.44127297    -0.37200
N4423       N  0.58063438  0.98033902  0.55857252    -0.38300
N4424       N  0.51364349  0.00944600  0.56585680    -0.39900
C4425       C  0.64339958  0.94703749  0.34080409    -0.04900
C4426       C  0.66535436  0.94665583  0.36011155     0.09300
C4427       C  0.70021778  0.94534267  0.35612789    -0.02300
C4428       C  0.71298201  0.94426522  0.33314570    -0.00500
C4429       C  0.69093555  0.94413611  0.31366880    -0.04100
C4430       C  0.65589948  0.94572264  0.31783441     0.02900
C4431       C  0.65163457  0.94757480  0.38464324     0.09700
C4432       C  0.72303863  0.94506747  0.37583751     0.35600
C4433       C  0.63215595  0.94580127  0.29863075     0.39100
C4434       C  0.63596073  0.93671149  0.39514489    -0.04500
C4435       C  0.62336519  0.93747166  0.41817762     0.02700
C4436       C  0.62615051  0.94917146  0.43113497    -0.04100
C4437       C  0.64157831  0.96009314  0.42043413    -0.00300
C4438       C  0.65411465  0.95929233  0.39737958    -0.02900
C4439       C  0.63338945  0.92460914  0.38230107     0.36400
C4440       C  0.64414975  0.97229499  0.43296968     0.40000
C4441       C  0.60912339  0.92592246  0.42887779     0.39100
C4442       C  0.66959981  0.97057718  0.38665214     0.36000
C4443       C  0.60767258  0.94883698  0.34465001     0.36700
C4444       C  0.74903471  0.94389003  0.32966740     0.40000
N4445       N  0.59787402  0.91669308  0.43743143    -0.38100
N4446       N  0.63130552  0.91497537  0.37199097    -0.39700
N4447       N  0.64624319  0.98202824  0.44298080    -0.37400
N4448       N  0.68204992  0.97955649  0.37806274    -0.39800
N4449       N  0.74116602  0.94487412  0.39161384    -0.39600
N4450       N  0.77782861  0.94370453  0.32693547    -0.37200
N4451       N  0.61311132  0.94594326  0.28337513    -0.38300
N4452       N  0.57919074  0.95027523  0.34775763    -0.39900
C4453       C  0.68297063  0.89692241  0.48521438    -0.04900
C4454       C  0.66953807  0.88753341  0.50058015     0.09300
C4455       C  0.64639207  0.89131627  0.51782911    -0.02300
C4456       C  0.63560288  0.90436004  0.51909393    -0.00500
C4457       C  0.64793263  0.91366206  0.50307619    -0.04100
C4458       C  0.67229480  0.91000928  0.48652819     0.02900
C4459       C  0.67998650  0.87361773  0.49876264     0.09700
C4460       C  0.63329957  0.88170708  0.53399398     0.35600
C4461       C  0.68510833  0.91956475  0.47016302     0.39100
C4462       C  0.70953658  0.86935288  0.50996898    -0.04500
C4463       C  0.71952568  0.85622750  0.50838440     0.02700
C4464       C  0.69989484  0.84727063  0.49556000    -0.04100
C4465       C  0.67011708  0.85153674  0.48448707    -0.00300
C4466       C  0.66013565  0.86469854  0.48615849    -0.02900
C4467       C  0.72936315  0.87848451  0.52343112     0.36400
C4468       C  0.65043229  0.84251356  0.47070987     0.40000
C4469       C  0.74953831  0.85189324  0.52060278     0.39100
C4470       C  0.62943422  0.86910801  0.47496272     0.36000
C4471       C  0.70701463  0.89299821  0.46763475     0.36700
C4472       C  0.61178458  0.90823133  0.53691745     0.40000
N4473       N  0.77346954  0.84845438  0.53034291    -0.38100
N4474       N  0.74507697  0.88578712  0.53418898    -0.39700
N4475       N  0.63484893  0.83530846  0.45964758    -0.37400
N4476       N  0.60488233  0.87264754  0.46612818    -0.39800
N4477       N  0.62285163  0.87401334  0.54682814    -0.39600
N4478       N  0.59286285  0.91131420  0.55116133    -0.37200
N4479       N  0.69530576  0.92721553  0.45714789    -0.38300
N4480       N  0.72615234  0.88982863  0.45359790    -0.39900
loop_ 
_geom_bond_atom_site_label_1 
_geom_bond_atom_site_label_2 
_geom_bond_distance 
_geom_bond_site_symmetry_2 
_ccdc_geom_bond_type 
O1            V9   1.918       .  S
O1           C11   1.270       .  A
O2            V9   1.916       .  S
O2           C12   1.269       .  A
O3            V9   1.887       .  S
O3           C13   1.261       .  A
O4            V9   1.880       .  S
O4           C14   1.259       .  A
O5           V10   1.911       .  S
O5           C14   1.267       .  A
O6           V10   1.913       .  S
O6           C13   1.268       .  A
O7           V10   1.898       .  S
O7           C12   1.264       .  A
O8           V10   1.905       .  S
O8           C11   1.265       .  A
V9           V10   2.085       .  T
C11        C2196   1.507       .  S
C12        C2140   1.505       .  S
C13        C2161   1.484       .  S
C14        C2217   1.474       .  S
O15          V23   1.921       .  S
O15          C25   1.271       .  A
O16          V23   1.919       .  S
O16          C26   1.270       .  A
O17          V23   1.890       .  S
O17          C27   1.261       .  A
O18          V23   1.888       .  S
O18          C28   1.261       .  A
O19          V24   1.904       .  S
O19          C28   1.265       .  A
O20          V24   1.910       .  S
O20          C27   1.267       .  A
O21          V24   1.891       .  S
O21          C26   1.262       .  A
O22          V24   1.895       .  S
O22          C25   1.264       .  A
V23          V24   2.085       .  T
C25        C2112   1.514       .  S
C26        C2049   1.494       .  S
C27        C2077   1.485       .  S
C28        C2224   1.479       .  S
O29          V37   1.923       .  S
O29          C39   1.271       .  A
O30          V37   1.924       .  S
O30          C40   1.270       .  A
O31          V37   1.885       .  S
O31          C41   1.260       .  A
O32          V37   1.883       .  S
O32          C42   1.259       .  A
O33          V38   1.912       .  S
O33          C42   1.267       .  A
O34          V38   1.908       .  S
O34          C41   1.267       .  A
O35          V38   1.896       .  S
O35          C40   1.263       .  A
O36          V38   1.902       .  S
O36          C39   1.265       .  A
V37          V38   2.085       .  T
C39        C2189   1.515       .  S
C40        C1972   1.498       .  S
C41        C1993   1.484       .  S
C42        C2021   1.475       .  S
O43          V51   1.916       .  S
O43          C53   1.269       .  A
O44          V51   1.918       .  S
O44          C54   1.269       .  A
O45          V51   1.886       .  S
O45          C55   1.260       .  A
O46          V51   1.883       .  S
O46          C56   1.260       .  A
O47          V52   1.911       .  S
O47          C56   1.268       .  A
O48          V52   1.916       .  S
O48          C55   1.268       .  A
O49          V52   1.893       .  S
O49          C54   1.262       .  A
O50          V52   1.896       .  S
O50          C53   1.263       .  A
V51          V52   2.085       .  T
C53        C2105   1.500       .  S
C54        C1916   1.489       .  S
C55        C1937   1.485       .  S
C56        C2028   1.485       .  S
O57          V65   1.917       .  S
O57          C67   1.270       .  A
O58          V65   1.913       .  S
O58          C68   1.267       .  A
O59          V65   1.890       .  S
O59          C69   1.262       .  A
O60          V65   1.888       .  S
O60          C70   1.261       .  A
O61          V66   1.913       .  S
O61          C70   1.268       .  A
O62          V66   1.914       .  S
O62          C69   1.268       .  A
O63          V66   1.891       .  S
O63          C68   1.261       .  A
O64          V66   1.896       .  S
O64          C67   1.264       .  A
V65          V66   2.083       .  T
C67        C1853   1.514       .  S
C68        C1804   1.482       .  S
C69        C1825   1.495       .  S
C70        C1881   1.491       .  S
O71          V79   1.907       .  S
O71          C81   1.267       .  A
O72          V79   1.909       .  S
O72          C82   1.267       .  A
O73          V79   1.897       .  S
O73          C83   1.263       .  A
O74          V79   1.889       .  S
O74          C84   1.261       .  A
O75          V80   1.908       .  S
O75          C84   1.266       .  A
O76          V80   1.909       .  S
O76          C83   1.266       .  A
O77          V80   1.893       .  S
O77          C82   1.263       .  A
O78          V80   1.896       .  S
O78          C81   1.263       .  A
V79          V80   2.085       .  T
C81        C1776   1.489       .  S
C82        C1720   1.502       .  S
C83        C1741   1.486       .  S
C84        C1888   1.479       .  S
O85          V93   1.910       .  S
O85          C95   1.267       .  A
O86          V93   1.908   1_554  S
O86          C96   1.267       .  A
O87          V93   1.890       .  S
O87          C97   1.261       .  A
O88          V93   1.884       .  S
O88          C98   1.261       .  A
O89          V94   1.901       .  S
O89          C98   1.264       .  A
O90          V94   1.901       .  S
O90          C97   1.265       .  A
O91          V94   1.900   1_554  S
O91          C96   1.265       .  A
O92          V94   1.902       .  S
O92          C95   1.265       .  A
V93          V94   2.086       .  T
C95        C1860   1.496       .  S
C96        C1629   1.494       .  S
C97        C1657   1.475       .  S
C98        C1685   1.470       .  S
O99         V107   1.914       .  S
O99         C109   1.269       .  A
O100        V107   1.915       .  S
O100        C110   1.268       .  A
O101        V107   1.884       .  S
O101        C111   1.260       .  A
O102        V107   1.882       .  S
O102        C112   1.260       .  A
O103        V108   1.904       .  S
O103        C112   1.266       .  A
O104        V108   1.903       .  S
O104        C111   1.265       .  A
O105        V108   1.890       .  S
O105        C110   1.261       .  A
O106        V108   1.891       .  S
O106        C109   1.263       .  A
V107        V108   2.084       .  T
C109       C1769   1.509       .  S
C110       C1580   1.487   1_556  S
C111       C1601   1.477       .  S
C112       C1692   1.477       .  S
O113        V121   1.914       .  S
O113        C123   1.268       .  A
O114        V121   1.914       .  S
O114        C124   1.269       .  A
O115        V121   1.883       .  S
O115        C125   1.260       .  A
O116        V121   1.885       .  S
O116        C126   1.260       .  A
O117        V122   1.908       .  S
O117        C126   1.267       .  A
O118        V122   1.910       .  S
O118        C125   1.268       .  A
O119        V122   1.889       .  S
O119        C124   1.262       .  A
O120        V122   1.899       .  S
O120        C123   1.263       .  A
V121        V122   2.086       .  T
C123       C1517   1.491       .  S
C124       C1468   1.493       .  S
C125       C1552   1.491       .  S
C126       C1489   1.480       .  S
O127        V135   1.907       .  S
O127        C137   1.267       .  A
O128        V135   1.908       .  S
O128        C138   1.266       .  A
O129        V135   1.883       .  S
O129        C139   1.260       .  A
O130        V135   1.891       .  S
O130        C140   1.262       .  A
O131        V136   1.910       .  S
O131        C140   1.267       .  A
O132        V136   1.912       .  S
O132        C139   1.266       .  A
O133        V136   1.903       .  S
O133        C138   1.265       .  A
O134        V136   1.914       .  S
O134        C137   1.268       .  A
V135        V136   2.084       .  T
C137       C1440   1.523       .  S
C138       C1405   1.491       .  S
C139       C1545   1.476       .  S
C140       C2168   1.492       .  S
O141        V149   1.913       .  S
O141        C151   1.268       .  A
O142        V149   1.910       .  S
O142        C152   1.267       .  A
O143        V149   1.885       .  S
O143        C153   1.261       .  A
O144        V149   1.886       .  S
O144        C154   1.261       .  A
O145        V150   1.908       .  S
O145        C154   1.266       .  A
O146        V150   1.907       .  S
O146        C153   1.267       .  A
O147        V150   1.901       .  S
O147        C152   1.264       .  A
O148        V150   1.907       .  S
O148        C151   1.266       .  A
V149        V150   2.085       .  T
C151       C1433   1.501       .  S
C152       C1321   1.492       .  S
C153       C1384   1.484       .  S
C154       C1349   1.481       .  S
O155        V163   1.903       .  S
O155        C165   1.266       .  A
O156        V163   1.905       .  S
O156        C166   1.265       .  A
O157        V163   1.890       .  S
O157        C167   1.262       .  A
O158        V163   1.899       .  S
O158        C168   1.264       .  A
O159        V164   1.903       .  S
O159        C168   1.266       .  A
O160        V164   1.904       .  S
O160        C167   1.263       .  A
O161        V164   1.902       .  S
O161        C166   1.265       .  A
O162        V164   1.912       .  S
O162        C165   1.267       .  A
V163        V164   2.086       .  T
C165       C1524   1.500       .  S
C166       C1300   1.487       .  S
C167       C1377   1.474       .  S
C168       C1748   1.498       .  S
O169        V177   1.923       .  S
O169        C179   1.271       .  A
O170        V177   1.925   1_556  S
O170        C180   1.271       .  A
O171        V177   1.877   1_556  S
O171        C181   1.258       .  A
O172        V177   1.883       .  S
O172        C182   1.260   1_554  A
O173        V178   1.911       .  S
O173        C182   1.269       .  A
O174        V178   1.908       .  S
O174        C181   1.267       .  A
O175        V178   1.894       .  S
O175        C180   1.263       .  A
O176        V178   1.898   1_554  S
O176        C179   1.264       .  A
V177        V178   2.081   1_554  T
C179       C1237   1.505       .  S
C180       C1209   1.503       .  S
C181       C1265   1.472       .  S
C182       C1664   1.501       .  S
O183        V191   1.921       .  S
O183        C193   1.271       .  A
O184        V191   1.925   1_556  S
O184        C194   1.271       .  A
O185        V191   1.873       .  S
O185        C195   1.258       .  A
O186        V191   1.878       .  S
O186        C196   1.258       .  A
O187        V192   1.913       .  S
O187        C196   1.269       .  A
O188        V192   1.913       .  S
O188        C195   1.269       .  A
O189        V192   1.889   1_556  S
O189        C194   1.261       .  A
O190        V192   1.895       .  S
O190        C193   1.263       .  A
V191        V192   2.077       .  T
C193       C1188   1.515       .  S
C194       C1125   1.491       .  S
C195       C1272   1.478       .  S
C196       C1153   1.501       .  S
O197        V205   1.924       .  S
O197        C207   1.272       .  A
O198        V205   1.922       .  S
O198        C208   1.270       .  A
O199        V205   1.876       .  S
O199        C209   1.257       .  A
O200        V205   1.880       .  S
O200        C210   1.260       .  A
O201        V206   1.913       .  S
O201        C210   1.267       .  A
O202        V206   1.907       .  S
O202        C209   1.267       .  A
O203        V206   1.890       .  S
O203        C208   1.261       .  A
O204        V206   1.893       .  S
O204        C207   1.263       .  A
V205        V206   2.083       .  T
C207       C1244   1.523       .  S
C208       C1041   1.491       .  S
C209       C1104   1.473       .  S
C210       C1069   1.482       .  S
O211        V219   1.924       .  S
O211        C221   1.271       .  A
O212        V219   1.925       .  S
O212        C222   1.271       .  A
O213        V219   1.872       .  S
O213        C223   1.257       .  A
O214        V219   1.882       .  S
O214        C224   1.259       .  A
O215        V220   1.918       .  S
O215        C224   1.271       .  A
O216        V220   1.912       .  S
O216        C223   1.267       .  A
O217        V220   1.890       .  S
O217        C222   1.261       .  A
O218        V220   1.893       .  S
O218        C221   1.263       .  A
V219        V220   2.082       .  T
C221       C1181   1.510       .  S
C222       C1020   1.498       .  S
C223       C1097   1.470       .  S
C224       C1944   1.505       .  S
O225       V2473   1.921       .  S
O225        C235   1.270       .  A
O226        V233   1.923       .  S
O226        C236   1.270       .  A
O227        V233   1.884       .  S
O227        C237   1.260       .  A
O228       V2473   1.876       .  S
O228        C238   1.259       .  A
O229        V234   1.913       .  S
O229        C238   1.269       .  A
O230        V234   1.912       .  S
O230       C2477   1.268       .  A
O231        V234   1.893       .  S
O231       C2476   1.261       .  A
O232        V234   1.901       .  S
O232        C235   1.265       .  A
V233       O2465   1.921       .  S
V233       O2468   1.875       .  S
V233       V2474   2.082   1_455  T
V234       V2473   2.082       .  T
C235        C957   1.512       .  S
C236       O2471   1.261       .  A
C236       C2133   1.490       .  S
C237       O2470   1.268       .  A
C237       C1356   1.491       .  S
C238        C985   1.500       .  S
O239        V247   1.920       .  S
O239        C249   1.270       .  A
O240        V247   1.921       .  S
O240        C250   1.269       .  A
O241        V247   1.893       .  S
O241        C251   1.262       .  A
O242        V247   1.881       .  S
O242        C252   1.260       .  A
O243        V248   1.904       .  S
O243        C252   1.265       .  A
O244        V248   1.899       .  S
O244        C251   1.266       .  A
O245        V248   1.893       .  S
O245        C250   1.262       .  A
O246        V248   1.895       .  S
O246        C249   1.263       .  A
V247        V248   2.086       .  T
C249        C929   1.507       .  S
C250       C2056   1.490       .  S
C251        C901   1.486       .  S
C252        C992   1.471       .  S
O253        V261   1.918       .  S
O253        C263   1.269       .  A
O254        V261   1.918   1_554  S
O254        C264   1.270       .  A
O255        V261   1.889       .  S
O255        C265   1.262       .  A
O256        V261   1.877       .  S
O256        C266   1.259   1_556  A
O257        V262   1.906   1_554  S
O257        C266   1.265       .  A
O258        V262   1.907       .  S
O258        C265   1.268       .  A
O259        V262   1.900   1_554  S
O259        C264   1.265       .  A
O260        V262   1.904       .  S
O260        C263   1.265       .  A
V261        V262   2.082       .  T
C263        C964   1.504       .  S
C264       C1965   1.506       .  S
C265        C845   1.502       .  S
C266        C873   1.467       .  S
O267        V275   1.915       .  S
O267        C277   1.268       .  A
O268       V2515   1.915   1_554  S
O268       C2518   1.268       .  A
O269       V2515   1.888       .  S
O269       C2519   1.261       .  A
O270        V275   1.882       .  S
O270        C280   1.260       .  A
O271        V276   1.900   1_554  S
O271        C280   1.265   1_554  A
O272        V276   1.901       .  S
O272        C279   1.265       .  A
O273        V276   1.893   1_554  S
O273        C278   1.263       .  A
O274        V276   1.900       .  S
O274        C277   1.264       .  A
V275       O2508   1.915   1_556  S
V275       O2509   1.888       .  S
V275        V276   2.085       .  T
C277        C936   1.493       .  S
C278       O2508   1.268       .  A
C278       C1909   1.490       .  S
C279       O2509   1.261       .  A
C279       C3400   1.478       .  S
C280        C880   1.475   1_556  S
O281        V289   1.915       .  S
O281        C291   1.269       .  A
O282        V289   1.916       .  S
O282        C292   1.269       .  A
O283        V289   1.883       .  S
O283        C293   1.260       .  A
O284        V289   1.891       .  S
O284        C294   1.262       .  A
O285        V290   1.910       .  S
O285        C294   1.267       .  A
O286       V2530   1.911   1_455  S
O286       C2533   1.266       .  A
O287        V290   1.897       .  S
O287        C292   1.263       .  A
O288       V2530   1.898   1_455  S
O288       C2531   1.264   1_455  A
V289        V290   2.086       .  T
V290       O2526   1.911       .  S
V290       O2528   1.898       .  S
C291       O2528   1.264       .  A
C291       C3029   1.502       .  S
C292       C1216   1.494       .  S
C293       O2526   1.266       .  A
C293       C3057   1.474       .  S
C294       C1832   1.488       .  S
O295        V303   1.921       .  S
O295        C305   1.270       .  A
O296        V303   1.921       .  S
O296        C306   1.270       .  A
O297        V303   1.880       .  S
O297        C307   1.259       .  A
O298        V303   1.884       .  S
O298        C308   1.260       .  A
O299        V304   1.910       .  S
O299        C308   1.267       .  A
O300        V304   1.909       .  S
O300        C307   1.268       .  A
O301        V304   1.890       .  S
O301        C306   1.261       .  A
O302        V304   1.898       .  S
O302        C305   1.262       .  A
V303        V304   2.085       .  T
C305        C768   1.495       .  S
C306       C1132   1.489       .  S
C307        C824   1.486       .  S
C308        C908   1.483       .  S
O309        V317   1.912       .  S
O309        C319   1.268       .  A
O310        V317   1.918       .  S
O310        C320   1.268       .  A
O311        V317   1.880       .  S
O311        C321   1.260       .  A
O312        V317   1.879       .  S
O312        C322   1.259       .  A
O313        V318   1.914       .  S
O313        C322   1.269       .  A
O314        V318   1.910       .  S
O314        C321   1.268       .  A
O315        V318   1.893       .  S
O315        C320   1.262       .  A
O316        V318   1.901       .  S
O316        C319   1.264       .  A
V317        V318   2.080       .  T
C319        C796   1.494       .  S
C320       C1048   1.487       .  S
C321        C740   1.489       .  S
C322        C705   1.503       .  S
O323        V331   1.918       .  S
O323        C333   1.269       .  A
O324        V331   1.919       .  S
O324        C334   1.269       .  A
O325        V331   1.888       .  S
O325        C335   1.261       .  A
O326        V331   1.898       .  S
O326        C336   1.264       .  A
O327        V332   1.903       .  S
O327        C336   1.266       .  A
O328       V2572   1.901       .  S
O328       C2575   1.263       .  A
O329        V332   1.897       .  S
O329        C334   1.264       .  A
O330        V332   1.904       .  S
O330        C333   1.266       .  A
V331        V332   2.085       .  T
V332       O2568   1.901       .  S
C333        C761   1.507       .  S
C334       C1013   1.495       .  S
C335       O2568   1.263       .  A
C335        C733   1.471       .  S
C336       C2084   1.498       .  S
O337        V345   1.908       .  S
O337        C347   1.267       .  A
O338        V345   1.909       .  S
O338        C348   1.266       .  A
O339        V345   1.887       .  S
O339        C349   1.261       .  A
O340        V345   1.881       .  S
O340        C350   1.261       .  A
O341        V346   1.904       .  S
O341        C350   1.266       .  A
O342        V346   1.905       .  S
O342        C349   1.266       .  A
O343        V346   1.895       .  S
O343        C348   1.263       .  A
O344        V346   1.903       .  S
O344        C347   1.265       .  A
V345        V346   2.085       .  T
C347        C649   1.491       .  S
C348       C1797   1.485       .  S
C349        C712   1.479       .  S
C350        C677   1.478       .  S
O351        V359   1.911       .  S
O351        C361   1.268       .  A
O352       V2599   1.912       .  S
O352       C2602   1.267       .  A
O353       V2599   1.890       .  S
O353        C363   1.262       .  A
O354        V359   1.882       .  S
O354        C364   1.260       .  A
O355        V360   1.903       .  S
O355        C364   1.264       .  A
O356        V360   1.900       .  S
O356       C2603   1.265       .  A
O357        V360   1.890       .  S
O357        C362   1.263       .  A
O358        V360   1.895       .  S
O358        C361   1.264       .  A
V359       O2592   1.912       .  S
V359       O2593   1.891       .  S
V359        V360   2.087       .  T
C361        C621   1.504       .  S
C362       O2592   1.267       .  A
C362       C3953   1.488       .  S
C363       O2596   1.265       .  A
C363       C1496   1.480       .  S
C364        C684   1.467       .  S
O365        V373   1.917       .  S
O365        C375   1.270       .  A
O366       V2613   1.919       .  S
O366       C2616   1.269       .  A
O367       V2613   1.883       .  S
O367       C2617   1.260       .  A
O368        V373   1.881       .  S
O368        C378   1.259       .  A
O369        V374   1.913       .  S
O369        C378   1.267       .  A
O370        V374   1.911       .  S
O370        C377   1.268       .  A
O371        V374   1.888       .  S
O371        C376   1.261       .  A
O372        V374   1.896       .  S
O372        C375   1.264       .  A
V373       O2606   1.919       .  S
V373       O2607   1.883       .  S
V373        V374   2.086       .  T
C375        C656   1.504       .  S
C376       O2606   1.269       .  A
C376       C1636   1.487       .  S
C377       O2607   1.260       .  A
C377       C3316   1.487       .  S
C378        C593   1.476       .  S
O379        V387   1.914       .  S
O379        C389   1.269       .  A
O380        V387   1.915       .  S
O380        C390   1.268       .  A
O381        V387   1.880       .  S
O381        C391   1.259       .  A
O382        V387   1.879       .  S
O382        C392   1.260       .  A
O383        V388   1.914       .  S
O383        C392   1.269       .  A
O384        V388   1.915       .  S
O384        C391   1.269       .  A
O385        V388   1.889       .  S
O385        C390   1.260       .  A
O386        V388   1.893       .  S
O386        C389   1.262       .  A
V387        V388   2.086       .  T
C389        C628   1.495       .  S
C390       C1573   1.483       .  S
C391        C565   1.486       .  S
C392        C600   1.490       .  S
O393        V401   1.912       .  S
O393        C403   1.268       .  A
O394        V401   1.913   1_556  S
O394        C404   1.267       .  A
O395        V401   1.887       .  S
O395        C405   1.261       .  A
O396        V401   1.890       .  S
O396        C406   1.262       .  A
O397        V402   1.905       .  S
O397        C406   1.266   1_556  A
O398        V402   1.903       .  S
O398        C405   1.266   1_556  A
O399        V402   1.896       .  S
O399        C404   1.263       .  A
O400        V402   1.902   1_554  S
O400        C403   1.265       .  A
V401        V402   2.083   1_554  T
C403        C509   1.516       .  S
C404       C1328   1.487       .  S
C405        C537   1.484   1_554  S
C406        C852   1.483       .  S
O407        V415   1.913       .  S
O407        C417   1.269   1_556  A
O408        V415   1.916       .  S
O408        C418   1.269       .  A
O409        V415   1.876       .  S
O409       C2659   1.259       .  A
O410        V415   1.878       .  S
O410        C420   1.259       .  A
O411        V416   1.914       .  S
O411        C420   1.270       .  A
O412       V2656   1.913   1_455  S
O412        C419   1.268       .  A
O413        V416   1.896       .  S
O413        C418   1.263       .  A
O414       V2656   1.898       .  S
O414       C2657   1.264   1_556  A
V415        V416   2.080       .  T
V416       O2652   1.912       .  S
V416       O2654   1.898       .  S
C417       O2654   1.264   1_554  A
C417       C2721   1.496       .  S
C418       C1293   1.492       .  S
C419       O2649   1.259   1_455  A
C419        C544   1.476       .  S
C420       C1608   1.498       .  S
O421        V429   1.917       .  S
O421        C431   1.269       .  A
O422        V429   1.920       .  S
O422        C432   1.269       .  A
O423        V429   1.880       .  S
O423        C433   1.260       .  A
O424        V429   1.883       .  S
O424        C434   1.260       .  A
O425        V430   1.912       .  S
O425        C434   1.268       .  A
O426       V2670   1.911       .  S
O426       C2673   1.268       .  A
O427        V430   1.888       .  S
O427        C432   1.261       .  A
O428       V2670   1.894       .  S
O428       C2671   1.262       .  A
V429        V430   2.086       .  T
V430       O2666   1.911       .  S
V430       O2668   1.894       .  S
C431       O2668   1.262       .  A
C431        C516   1.489       .  S
C432       C1412   1.489       .  S
C433       O2666   1.268       .  A
C433       C2693   1.489       .  S
C434       C2000   1.483       .  S
O435        V443   1.908       .  S
O435        C445   1.267       .  A
O436        V443   1.909       .  S
O436        C446   1.267       .  A
O437        V443   1.884       .  S
O437        C447   1.260       .  A
O438        V443   1.888       .  S
O438        C448   1.262       .  A
O439        V444   1.908       .  S
O439        C448   1.267       .  A
O440        V444   1.907       .  S
O440        C447   1.265       .  A
O441        V444   1.895       .  S
O441        C446   1.263       .  A
O442        V444   1.902       .  S
O442        C445   1.265       .  A
V443        V444   2.087       .  T
C445        C488   1.498       .  S
C446       C1461   1.488       .  S
C447        C460   1.473       .  S
C448        C572   1.486       .  S
C449        C450   1.412   1_455  A
C449        C454   1.410       .  A
C449        C467   1.451       .  S
C450        C455   1.493   1_655  S
C450        C451   1.407       .  A
C451        C452   1.407       .  A
C451        C456   1.452       .  S
C452        C453   1.420       .  A
C452        C468   1.452       .  S
C453       C2673   1.489       .  S
C453        C454   1.415   1_655  A
C454       C2697   1.451       .  S
C455        C458   1.412       .  A
C455        C462   1.412       .  A
C456        N473   1.157       .  T
C457       C2694   1.451       .  S
C457        N475   1.157       .  T
C458        C459   1.408       .  A
C458        C463   1.451       .  S
C459        C460   1.411       .  A
C459        C465   1.452       .  S
C460        C461   1.411       .  A
C461        C462   1.409       .  A
C461        C464   1.451       .  S
C462       C2706   1.450       .  S
C463        N470   1.157   1_455  T
C464       N2711   1.157       .  T
C465        N469   1.157       .  T
C466       C2702   1.450       .  S
C466        N472   1.157       .  T
C467        N476   1.157       .  T
C468        N474   1.158       .  T
N471       C2704   1.157       .  T
C477        C478   1.412       .  A
C477       C2722   1.415   1_455  A
C477        C495   1.450       .  S
C478        C483   1.503       .  S
C478        C479   1.410       .  A
C479        C480   1.413   1_455  A
C479        C484   1.451       .  S
C480        C481   1.418       .  A
C480        C496   1.450       .  S
C481       C2657   1.496       .  S
C481       C2722   1.417       .  A
C482       C2717   1.415       .  A
C482       C2721   1.417       .  A
C482        C485   1.451       .  S
C483        C486   1.411       .  A
C483        C490   1.410       .  A
C484        N501   1.157       .  T
C485        N503   1.157       .  T
C486        C487   1.414       .  A
C486       C2731   1.450       .  S
C487        C488   1.416       .  A
C487        C493   1.450       .  S
C488        C489   1.420       .  A
C489        C490   1.414       .  A
C489        C492   1.451       .  S
C490        C494   1.451   1_455  S
C491       C2726   1.450       .  S
C491        N498   1.157       .  T
C492        N499   1.157   1_455  T
C493       N2737   1.157       .  T
C494        N500   1.157       .  T
C495        N504   1.157       .  T
C496        N502   1.157       .  T
N497       C2733   1.157       .  T
C505        C506   1.407       .  A
C505        C510   1.415       .  A
C505        C523   1.452   1_455  S
C506        C511   1.505       .  S
C506        C507   1.409       .  A
C507        C508   1.417       .  A
C507        C512   1.451       .  S
C508        C509   1.425       .  A
C508        C524   1.451       .  S
C509        C510   1.428       .  A
C510        C513   1.451       .  S
C511        C514   1.411       .  A
C511       C2758   1.413   1_455  A
C512        N529   1.157       .  T
C513        N531   1.158   1_455  T
C514        C515   1.413   1_455  A
C514        C519   1.450       .  S
C515       C2756   1.415       .  A
C515        C521   1.451       .  S
C516        C517   1.414       .  A
C516       C2755   1.415       .  A
C517        C518   1.415       .  A
C517        C520   1.451       .  S
C518       C2751   1.413       .  A
C518        C522   1.450       .  S
C519        N526   1.157       .  T
C520        N527   1.157       .  T
C521        N525   1.157       .  T
C522        N528   1.157       .  T
C523        N532   1.157       .  T
C524        N530   1.157       .  T
C533        C534   1.413       .  A
C533        C538   1.410       .  A
C533        C551   1.451   1_455  S
C534        C539   1.494       .  S
C534        C535   1.408       .  A
C535        C536   1.407       .  A
C535        C540   1.452       .  S
C536        C537   1.419       .  A
C536        C552   1.453       .  S
C537        C538   1.413       .  A
C538        C541   1.451   1_556  S
C539        C546   1.411       .  A
C539       C2782   1.413       .  A
C540        N557   1.157       .  T
C541        N559   1.157   1_455  T
C542        C543   1.409       .  A
C542       C2779   1.413       .  A
C542        C547   1.451   1_556  S
C543       C2784   1.411       .  A
C543        C549   1.451       .  S
C544        C545   1.414       .  A
C544       C2783   1.411       .  A
C545        C546   1.407       .  A
C545        C548   1.452   1_455  S
C546        C550   1.451       .  S
C547        N554   1.157       .  T
C548        N555   1.157       .  T
C549        N553   1.157   1_556  T
C550        N556   1.157       .  T
C551        N560   1.157   1_556  T
C552        N558   1.157       .  T
C561        C562   1.409       .  A
C561        C566   1.409       .  A
C561        C579   1.451       .  S
C562        C567   1.494       .  S
C562        C563   1.410       .  A
C563        C564   1.412       .  A
C563        C568   1.450       .  S
C564        C565   1.415       .  A
C564        C580   1.450       .  S
C565        C566   1.417       .  A
C566        C569   1.452       .  S
C567        C570   1.412       .  A
C567        C574   1.407       .  A
C568        N585   1.157       .  T
C569        N587   1.157       .  T
C570        C571   1.413       .  A
C570        C575   1.450       .  S
C571        C572   1.412       .  A
C571        C577   1.450       .  S
C572        C573   1.419       .  A
C573        C574   1.408       .  A
C573        C576   1.453       .  S
C574        C578   1.452       .  S
C575        N582   1.157       .  T
C576        N583   1.157       .  T
C577        N581   1.157       .  T
C578        N584   1.157       .  T
C579        N588   1.158       .  T
C580        N586   1.158       .  T
C589        C590   1.413       .  A
C589        C594   1.408       .  A
C589        C607   1.451       .  S
C590        C595   1.497       .  S
C590        C591   1.413       .  A
C591        C592   1.411       .  A
C591        C596   1.450       .  S
C592        C593   1.411       .  A
C592        C608   1.451       .  S
C593        C594   1.412       .  A
C594        C597   1.452       .  S
C595        C598   1.408       .  A
C595        C602   1.413       .  A
C596        N613   1.157       .  T
C597        N615   1.157       .  T
C598        C599   1.407       .  A
C598        C603   1.452       .  S
C599        C600   1.420       .  A
C599        C605   1.453       .  S
C600        C601   1.415       .  A
C601        C602   1.413       .  A
C601        C604   1.451       .  S
C602        C606   1.451       .  S
C603        N610   1.157       .  T
C604        N611   1.158       .  T
C605        N609   1.157       .  T
C606        N612   1.157       .  T
C607        N616   1.157       .  T
C608        N614   1.157       .  T
C617        C618   1.408       .  A
C617        C622   1.412       .  A
C617        C635   1.452       .  S
C618        C623   1.502       .  S
C618        C619   1.410       .  A
C619        C620   1.415       .  A
C619        C624   1.451       .  S
C620        C621   1.421       .  A
C620        C636   1.450       .  S
C621        C622   1.424       .  A
C622        C625   1.452       .  S
C623        C626   1.411       .  A
C623        C630   1.410       .  A
C624        N641   1.157       .  T
C625        N643   1.158       .  T
C626        C627   1.413       .  A
C626        C631   1.451       .  S
C627        C628   1.417       .  A
C627        C633   1.451       .  S
C628        C629   1.419       .  A
C629        C630   1.413       .  A
C629        C632   1.451       .  S
C630        C634   1.451       .  S
C631        N638   1.157       .  T
C632        N639   1.157       .  T
C633        N637   1.157       .  T
C634        N640   1.157       .  T
C635        N644   1.157       .  T
C636        N642   1.157       .  T
C645        C646   1.413       .  A
C645        C650   1.416       .  A
C645        C663   1.449       .  S
C646        C651   1.504       .  S
C646        C647   1.411       .  A
C647        C648   1.413       .  A
C647        C652   1.451       .  S
C648        C649   1.415       .  A
C648        C664   1.451       .  S
C649        C650   1.414       .  A
C650        C653   1.450       .  S
C651        C654   1.411       .  A
C651        C658   1.409       .  A
C652        N669   1.157       .  T
C653        N671   1.157       .  T
C654        C655   1.417       .  A
C654        C659   1.450       .  S
C655        C656   1.419       .  A
C655        C661   1.450       .  S
C656        C657   1.422       .  A
C657        C658   1.414       .  A
C657        C660   1.452       .  S
C658        C662   1.451       .  S
C659        N666   1.157       .  T
C660        N667   1.157       .  T
C661       N2905   1.157       .  T
C662        N668   1.157       .  T
C663        N672   1.157       .  T
C664        N670   1.157       .  T
N665       C2901   1.157       .  T
C673        C674   1.408       .  A
C673        C678   1.405       .  A
C673        C691   1.451       .  S
C674        C679   1.488       .  S
C674        C675   1.412       .  A
C675        C676   1.409       .  A
C675        C680   1.451       .  S
C676        C677   1.413       .  A
C676        C692   1.451       .  S
C677        C678   1.416       .  A
C678        C681   1.452       .  S
C679        C682   1.412       .  A
C679        C686   1.410       .  A
C680        N697   1.157       .  T
C681        N699   1.157       .  T
C682        C683   1.407       .  A
C682        C687   1.451       .  S
C683        C684   1.408       .  A
C683        C689   1.451       .  S
C684        C685   1.410       .  A
C685        C686   1.406       .  A
C685        C688   1.451       .  S
C686        C690   1.451       .  S
C687        N694   1.157       .  T
C688       N2935   1.157       .  T
C689        N693   1.157       .  T
C690        N696   1.157       .  T
C691        N700   1.157       .  T
C692        N698   1.157       .  T
N695       C2928   1.157       .  T
C701        C702   1.405       .  A
C701        C706   1.406       .  A
C701        C719   1.454       .  S
C702        C707   1.495       .  S
C702        C703   1.410       .  A
C703        C704   1.414       .  A
C703        C708   1.451       .  S
C704        C705   1.421       .  A
C704        C720   1.450       .  S
C705        C706   1.428       .  A
C706        C709   1.453       .  S
C707        C710   1.411       .  A
C707        C714   1.411       .  A
C708        N725   1.157       .  T
C709        N727   1.157       .  T
C710        C711   1.408       .  A
C710        C715   1.451       .  S
C711        C712   1.414       .  A
C711        C717   1.452       .  S
C712        C713   1.412       .  A
C713        C714   1.410       .  A
C713        C716   1.451       .  S
C714        C718   1.450       .  S
C715        N722   1.157       .  T
C716        N723   1.157       .  T
C717        N721   1.157       .  T
C718        N724   1.157       .  T
C719        N728   1.157       .  T
C720        N726   1.158       .  T
C729        C730   1.412       .  A
C729        C734   1.406       .  A
C729        C747   1.451       .  S
C730        C735   1.491       .  S
C730       C2971   1.411       .  A
C731        C732   1.409       .  A
C731       C2970   1.411       .  A
C731        C736   1.450       .  S
C732        C733   1.411       .  A
C732        C748   1.451       .  S
C733       C2974   1.410       .  A
C734       C2973   1.410       .  A
C734        C737   1.452       .  S
C735        C738   1.411       .  A
C735        C742   1.407       .  A
C736        N753   1.157       .  T
C737        N755   1.157       .  T
C738        C739   1.410       .  A
C738       C2983   1.451   1_455  S
C739        C740   1.416       .  A
C739        C745   1.450       .  S
C740        C741   1.421       .  A
C741        C742   1.407       .  A
C741        C744   1.453       .  S
C742        C746   1.452       .  S
C743       C2978   1.451       .  S
C743        N750   1.157       .  T
C744        N751   1.157       .  T
C745       N2989   1.157       .  T
C746        N752   1.157       .  T
C747        N756   1.157       .  T
C748        N754   1.157       .  T
N749       C2985   1.157       .  T
C757        C758   1.411       .  A
C757        C762   1.415       .  A
C757        C775   1.451       .  S
C758        C763   1.512       .  S
C758       C2999   1.414   1_455  A
C759        C760   1.420       .  A
C759       C2998   1.414       .  A
C759        C764   1.450       .  S
C760        C761   1.418       .  A
C760        C776   1.450       .  S
C761       C3002   1.421       .  A
C762       C3001   1.421   1_455  A
C762        C765   1.452       .  S
C763        C766   1.414       .  A
C763        C770   1.414       .  A
C764        N781   1.157       .  T
C765        N783   1.157       .  T
C766        C767   1.416       .  A
C766        C771   1.450       .  S
C767        C768   1.414       .  A
C767        C773   1.451       .  S
C768        C769   1.415       .  A
C769        C770   1.417       .  A
C769        C772   1.451       .  S
C770        C774   1.450       .  S
C771        N778   1.157       .  T
C772        N779   1.157       .  T
C773        N777   1.157       .  T
C774        N780   1.157       .  T
C775        N784   1.157       .  T
C776        N782   1.158       .  T
C785        C786   1.409       .  A
C785        C790   1.413       .  A
C785        C803   1.451       .  S
C786        C791   1.505       .  S
C786       C3027   1.412       .  A
C787        C788   1.417       .  A
C787       C3026   1.412       .  A
C787        C792   1.450       .  S
C788       C3029   1.417       .  A
C788        C804   1.450       .  S
C789       C2531   1.502   1_455  S
C789        C790   1.422       .  A
C789       C3028   1.417   1_455  A
C790        C793   1.452       .  S
C791        C794   1.411       .  A
C791        C798   1.412       .  A
C792        N809   1.157       .  T
C793        N811   1.157       .  T
C794        C795   1.414       .  A
C794       C3039   1.450       .  S
C795        C796   1.416       .  A
C795        C801   1.451       .  S
C796        C797   1.416       .  A
C797        C798   1.415       .  A
C797        C800   1.451       .  S
C798        C802   1.450       .  S
C799       C3034   1.450       .  S
C799        N806   1.157       .  T
C800        N807   1.157       .  T
C801        N805   1.157       .  T
C802        N808   1.157       .  T
C803        N812   1.157       .  T
C804        N810   1.157       .  T
C813        C814   1.414       .  A
C813        C818   1.411       .  A
C813        C831   1.450       .  S
C814        C819   1.495       .  S
C814        C815   1.412       .  A
C815        C816   1.406       .  A
C815        C820   1.452       .  S
C816        C817   1.411       .  A
C816       C3072   1.452       .  S
C817       C2533   1.474       .  S
C817        C818   1.410       .  A
C818        C821   1.451       .  S
C819        C822   1.409       .  A
C819        C826   1.414       .  A
C820        N837   1.157       .  T
C821        N839   1.157       .  T
C822        C823   1.409       .  A
C822        C827   1.451       .  S
C823        C824   1.419       .  A
C823        C829   1.452       .  S
C824        C825   1.413       .  A
C825        C826   1.409       .  A
C825       C3068   1.451       .  S
C826       C3070   1.451       .  S
C827        N834   1.157       .  T
C828       C3065   1.451       .  S
C828        N835   1.157       .  T
C829        N833   1.158       .  T
C830       C3066   1.451       .  S
C830        N836   1.157       .  T
C831        N840   1.157       .  T
C832       C3056   1.452       .  S
C832        N838   1.157       .  T
C841        C842   1.406       .  A
C841        C846   1.410       .  A
C841        C859   1.452       .  S
C842        C847   1.495       .  S
C842        C843   1.409       .  A
C843        C844   1.412       .  A
C843        C848   1.451   1_565  S
C844        C845   1.420       .  A
C844        C860   1.450       .  S
C845        C846   1.426       .  A
C846        C849   1.452       .  S
C847        C850   1.411   1_556  A
C847        C854   1.410       .  A
C848        N865   1.157       .  T
C849        N867   1.157       .  T
C850        C851   1.410   1_565  A
C850        C855   1.451       .  S
C851        C852   1.413       .  A
C851        C857   1.451       .  S
C852        C853   1.416   1_554  A
C853        C854   1.410   1_545  A
C853        C856   1.451       .  S
C854        C858   1.451       .  S
C855        N862   1.157       .  T
C856        N863   1.157       .  T
C857        N861   1.157       .  T
C858        N864   1.157       .  T
C859        N868   1.158       .  T
C860        N866   1.158       .  T
C869        C870   1.408       .  A
C869        C874   1.404       .  A
C869        C887   1.451       .  S
C870        C875   1.485       .  S
C870        C871   1.411   1_554  A
C871        C872   1.408       .  A
C871        C876   1.450       .  S
C872        C873   1.410   1_556  A
C872        C888   1.451       .  S
C873        C874   1.412       .  A
C874        C877   1.452       .  S
C875        C878   1.412   1_554  A
C875        C882   1.406       .  A
C876        N893   1.157       .  T
C877        N895   1.157       .  T
C878        C879   1.407       .  A
C878        C883   1.451       .  S
C879        C880   1.411   1_556  A
C879        C885   1.451       .  S
C880        C881   1.417       .  A
C881        C882   1.406       .  A
C881        C884   1.452       .  S
C882        C886   1.451       .  S
C883        N890   1.157       .  T
C884       N3131   1.157       .  T
C885        N889   1.157       .  T
C886        N892   1.157       .  T
C887        N896   1.157       .  T
C888        N894   1.157       .  T
N891       C3124   1.157   1_455  T
C897        C898   1.410       .  A
C897        C902   1.409       .  A
C897        C915   1.451       .  S
C898        C903   1.491       .  S
C898        C899   1.408       .  A
C899        C900   1.410       .  A
C899        C904   1.451       .  S
C900        C901   1.418       .  A
C900        C916   1.451       .  S
C901        C902   1.415       .  A
C902        C905   1.452       .  S
C903        C906   1.409       .  A
C903        C910   1.409       .  A
C904        N921   1.157       .  T
C905        N923   1.157       .  T
C906        C907   1.411       .  A
C906        C911   1.450       .  S
C907        C908   1.416       .  A
C907        C913   1.451       .  S
C908        C909   1.415       .  A
C909        C910   1.408       .  A
C909        C912   1.452       .  S
C910        C914   1.452       .  S
C911        N918   1.157       .  T
C912        N919   1.157       .  T
C913        N917   1.158       .  T
C914        N920   1.157       .  T
C915        N924   1.157       .  T
C916        N922   1.158       .  T
C925        C926   1.412       .  A
C925        C930   1.419       .  A
C925        C943   1.450       .  S
C926        C931   1.507       .  S
C926        C927   1.408       .  A
C927        C928   1.413       .  A
C927        C932   1.451       .  S
C928        C929   1.424       .  A
C928        C944   1.452       .  S
C929        C930   1.419       .  A
C930        C933   1.450       .  S
C931        C934   1.412       .  A
C931        C938   1.413       .  A
C932        N949   1.157       .  T
C933        N951   1.157       .  T
C934        C935   1.415       .  A
C934        C939   1.450       .  S
C935        C936   1.414       .  A
C935        C941   1.450       .  S
C936        C937   1.415       .  A
C937        C938   1.415       .  A
C937        C940   1.451       .  S
C938        C942   1.450       .  S
C939        N946   1.157       .  T
C940       N3187   1.157       .  T
C941        N945   1.157       .  T
C942        N948   1.157       .  T
C943        N952   1.157       .  T
C944        N950   1.157       .  T
N947       C3180   1.157       .  T
C953        C954   1.413       .  A
C953        C958   1.421       .  A
C953        C971   1.450       .  S
C954        C959   1.511       .  S
C954        C955   1.409       .  A
C955        C956   1.415       .  A
C955        C960   1.451       .  S
C956        C957   1.423       .  A
C956        C972   1.451       .  S
C957        C958   1.420       .  A
C958       C3201   1.449       .  S
C959        C962   1.412       .  A
C959        C966   1.412       .  A
C960        N977   1.157       .  T
C961       C3198   1.449   1_455  S
C961        N979   1.158       .  T
C962        C963   1.416       .  A
C962        C967   1.450       .  S
C963        C964   1.417       .  A
C963        C969   1.450       .  S
C964        C965   1.420       .  A
C965        C966   1.418       .  A
C965        C968   1.451       .  S
C966        C970   1.450       .  S
C967        N974   1.157       .  T
C968        N975   1.157       .  T
C969        N973   1.157       .  T
C970        N976   1.157       .  T
C971        N980   1.157       .  T
C972        N978   1.157       .  T
C981        C982   1.407       .  A
C981        C986   1.411       .  A
C981        C999   1.451       .  S
C982        C987   1.487       .  S
C982        C983   1.402       .  A
C983        C984   1.406       .  A
C983        C988   1.453       .  S
C984        C985   1.429       .  A
C984       C1000   1.453       .  S
C985        C986   1.422       .  A
C986        C989   1.450       .  S
C987        C990   1.410       .  A
C987        C994   1.410       .  A
C988       N1005   1.157       .  T
C989       N1007   1.158       .  T
C990        C991   1.410       .  A
C990        C995   1.449       .  S
C991        C992   1.412       .  A
C991        C997   1.451       .  S
C992        C993   1.411       .  A
C993        C994   1.404       .  A
C993        C996   1.453       .  S
C994        C998   1.452       .  S
C995       N1002   1.157       .  T
C996       N1003   1.158       .  T
C997       N1001   1.157       .  T
C998       N1004   1.157       .  T
C999       N1008   1.157       .  T
C1000      N1006   1.158       .  T
C1009      C1010   1.413       .  A
C1009      C1014   1.417       .  A
C1009      C1027   1.450       .  S
C1010      C1015   1.506       .  S
C1010      C1011   1.412       .  A
C1011      C1012   1.413       .  A
C1011      C1016   1.451       .  S
C1012      C1013   1.415       .  A
C1012      C1028   1.451       .  S
C1013      C1014   1.417       .  A
C1014      C1017   1.450       .  S
C1015      C1018   1.409       .  A
C1015      C1022   1.414       .  A
C1016      N1033   1.157       .  T
C1017      N1035   1.157       .  T
C1018      C1019   1.413       .  A
C1018      C1023   1.451       .  S
C1019      C1020   1.420       .  A
C1019      C1025   1.452       .  S
C1020      C1021   1.414       .  A
C1021      C1022   1.417       .  A
C1021      C1024   1.449       .  S
C1022      C1026   1.449       .  S
C1023      N1030   1.157       .  T
C1024      N1031   1.157       .  T
C1025      N1029   1.158       .  T
C1026      N1032   1.157       .  T
C1027      N1036   1.157       .  T
C1028      N1034   1.157       .  T
C1037      C1038   1.410       .  A
C1037      C1042   1.411       .  A
C1037      C1055   1.451       .  S
C1038      C1043   1.503       .  S
C1038      C1039   1.414       .  A
C1039      C1040   1.416       .  A
C1039      C1044   1.450       .  S
C1040      C1041   1.412       .  A
C1040      C1056   1.450       .  S
C1041      C1042   1.418       .  A
C1042      C1045   1.452       .  S
C1043      C1046   1.412       .  A
C1043      C1050   1.412       .  A
C1044      N1061   1.157       .  T
C1045      N1063   1.157       .  T
C1046      C1047   1.414       .  A
C1046      C1051   1.450       .  S
C1047      C1048   1.414       .  A
C1047      C1053   1.451       .  S
C1048      C1049   1.412       .  A
C1049      C1050   1.413       .  A
C1049      C1052   1.448       .  S
C1050      C1054   1.451       .  S
C1051      N1058   1.157       .  T
C1052      N1059   1.156       .  T
C1053      N1057   1.157       .  T
C1054      N1060   1.157       .  T
C1055      N1064   1.157       .  T
C1056      N1062   1.157       .  T
C1065      C1066   1.409       .  A
C1065      C1070   1.407       .  A
C1065      C1083   1.451       .  S
C1066      C1071   1.492       .  S
C1066      C1067   1.410       .  A
C1067      C1068   1.411       .  A
C1067      C1072   1.450       .  S
C1068      C1069   1.414       .  A
C1068      C1084   1.450       .  S
C1069      C1070   1.415       .  A
C1070      C1073   1.452       .  S
C1071      C1074   1.405       .  A
C1071      C1078   1.412       .  A
C1072      N1089   1.157       .  T
C1073      N1091   1.157       .  T
C1074      C1075   1.407       .  A
C1074      C1079   1.452       .  S
C1075      C1076   1.421       .  A
C1075      C1081   1.453       .  S
C1076      C2617   1.487       .  S
C1076      C1077   1.413       .  A
C1077      C1078   1.412       .  A
C1077      C3320   1.450       .  S
C1078      C1082   1.450       .  S
C1079      N1086   1.157       .  T
C1080      C3317   1.450       .  S
C1080      N1087   1.157       .  T
C1081      N1085   1.158       .  T
C1082      N1088   1.157       .  T
C1083      N1092   1.157       .  T
C1084      N1090   1.157       .  T
C1093      C1094   1.407       .  A
C1093      C1098   1.403       .  A
C1093      C1111   1.452       .  S
C1094      C1099   1.485       .  S
C1094      C1095   1.411       .  A
C1095      C1096   1.409       .  A
C1095      C1100   1.450       .  S
C1096      C1097   1.410       .  A
C1096      C1112   1.451       .  S
C1097      C1098   1.414       .  A
C1098      C1101   1.452       .  S
C1099      C1102   1.405       .  A
C1099      C1106   1.413       .  A
C1100      N1117   1.157       .  T
C1101      N1119   1.157       .  T
C1102      C1103   1.405       .  A
C1102      C1107   1.451       .  S
C1103      C1104   1.417       .  A
C1103      C1109   1.452       .  S
C1104      C1105   1.409       .  A
C1105      C1106   1.408       .  A
C1105      C1108   1.451       .  S
C1106      C1110   1.451       .  S
C1107      N1114   1.157       .  T
C1108      N1115   1.157       .  T
C1109      N1113   1.157       .  T
C1110      N1116   1.157       .  T
C1111      N1120   1.157       .  T
C1112      N1118   1.157       .  T
C1121      C1122   1.415       .  A
C1121      C1126   1.416       .  A
C1121      C1139   1.450       .  S
C1122      C1127   1.507       .  S
C1122      C1123   1.412       .  A
C1123      C1124   1.412       .  A
C1123      C1128   1.451       .  S
C1124      C1125   1.417       .  A
C1124      C1140   1.452       .  S
C1125      C1126   1.413       .  A
C1126      C1129   1.449       .  S
C1127      C1130   1.416       .  A
C1127      C1134   1.412       .  A
C1128      N1145   1.157       .  T
C1129      N1147   1.157       .  T
C1130      C1131   1.416       .  A
C1130      C1135   1.450       .  S
C1131      C1132   1.412       .  A
C1131      C1137   1.450       .  S
C1132      C1133   1.416       .  A
C1133      C1134   1.412       .  A
C1133      C1136   1.452       .  S
C1134      C1138   1.451       .  S
C1135      N1142   1.157       .  T
C1136      N1143   1.157       .  T
C1137      N1141   1.157       .  T
C1138      N1144   1.157       .  T
C1139      N1148   1.157       .  T
C1140      N1146   1.157       .  T
C1149      C1150   1.409       .  A
C1149      C1154   1.412       .  A
C1149      C1167   1.451       .  S
C1150      C1155   1.492       .  S
C1150      C1151   1.405       .  A
C1151      C1152   1.407       .  A
C1151      C1156   1.453       .  S
C1152      C1153   1.428       .  A
C1152      C1168   1.453       .  S
C1153      C1154   1.420       .  A
C1154      C1157   1.450       .  S
C1155      C1158   1.411   1_554  A
C1155      C1162   1.410       .  A
C1156      N1173   1.158       .  T
C1157      N1175   1.158       .  T
C1158      C1159   1.410       .  A
C1158      C1163   1.450       .  S
C1159      C1160   1.412       .  A
C1159      C1165   1.451       .  S
C1160      C2519   1.477       .  S
C1160      C1161   1.415   1_556  A
C1161      C1162   1.406       .  A
C1161      C3404   1.452       .  S
C1162      C1166   1.452       .  S
C1163      N1170   1.157       .  T
C1164      C3401   1.452       .  S
C1164      N1171   1.158       .  T
C1165      N1169   1.157       .  T
C1166      N1172   1.157       .  T
C1167      N1176   1.157       .  T
C1168      N1174   1.157       .  T
C1177      C1178   1.408       .  A
C1177      C1182   1.414       .  A
C1177      C1195   1.451       .  S
C1178      C1183   1.508       .  S
C1178      C1179   1.411       .  A
C1179      C1180   1.418       .  A
C1179      C1184   1.450       .  S
C1180      C1181   1.422       .  A
C1180      C1196   1.450       .  S
C1181      C1182   1.424       .  A
C1182      C1185   1.451       .  S
C1183      C1186   1.407       .  A
C1183      C1190   1.411       .  A
C1184      N1201   1.157       .  T
C1185      N1203   1.157       .  T
C1186      C1187   1.414       .  A
C1186      C1191   1.452       .  S
C1187      C1188   1.428       .  A
C1187      C1193   1.451       .  S
C1188      C1189   1.423       .  A
C1189      C1190   1.419       .  A
C1189      C1192   1.450       .  S
C1190      C1194   1.450       .  S
C1191      N1198   1.157       .  T
C1192      N1199   1.157       .  T
C1193      N1197   1.158       .  T
C1194      N1200   1.157       .  T
C1195      N1204   1.157       .  T
C1196      N1202   1.158       .  T
C1205      C1206   1.412       .  A
C1205      C1210   1.417       .  A
C1205      C1223   1.450       .  S
C1206      C1211   1.507       .  S
C1206      C1207   1.410       .  A
C1207      C1208   1.414       .  A
C1207      C1212   1.451       .  S
C1208      C1209   1.421       .  A
C1208      C1224   1.452       .  S
C1209      C1210   1.416       .  A
C1210      C1213   1.448       .  S
C1211      C1214   1.412       .  A
C1211      C1218   1.413       .  A
C1212      N1229   1.157       .  T
C1213      N1231   1.157       .  T
C1214      C1215   1.414       .  A
C1214      C1219   1.450       .  S
C1215      C1216   1.416       .  A
C1215      C1221   1.451       .  S
C1216      C1217   1.415       .  A
C1217      C1218   1.416       .  A
C1217      C1220   1.450       .  S
C1218      C1222   1.450       .  S
C1219      N1226   1.157       .  T
C1220      N1227   1.157       .  T
C1221      N1225   1.157       .  T
C1222      N1228   1.157       .  T
C1223      N1232   1.157       .  T
C1224      N1230   1.157       .  T
C1233      C1234   1.413       .  A
C1233      C1238   1.419       .  A
C1233      C1251   1.450       .  S
C1234      C1239   1.511       .  S
C1234      C1235   1.410       .  A
C1235      C1236   1.415       .  A
C1235      C1240   1.451       .  S
C1236      C1237   1.419       .  A
C1236      C1252   1.450       .  S
C1237      C1238   1.419       .  A
C1238      C1241   1.450       .  S
C1239      C1242   1.410       .  A
C1239      C1246   1.406       .  A
C1240      N1257   1.157       .  T
C1241      N1259   1.157       .  T
C1242      C1243   1.421       .  A
C1242      C1247   1.451       .  S
C1243      C1244   1.426       .  A
C1243      C1249   1.450       .  S
C1244      C1245   1.431       .  A
C1245      C1246   1.415       .  A
C1245      C1248   1.452       .  S
C1246      C1250   1.452       .  S
C1247      N1254   1.157       .  T
C1248      N1255   1.157       .  T
C1249      N1253   1.158       .  T
C1250      N1256   1.157       .  T
C1251      N1260   1.157       .  T
C1252      N1258   1.157       .  T
C1261      C1262   1.413   1_554  A
C1261      C1266   1.408       .  A
C1261      C1279   1.451       .  S
C1262      C1267   1.488       .  S
C1262      C1263   1.408       .  A
C1263      C1264   1.406       .  A
C1263      C1268   1.451       .  S
C1264      C1265   1.414       .  A
C1264      C1280   1.452       .  S
C1265      C1266   1.410   1_556  A
C1266      C1269   1.451       .  S
C1267      C1270   1.413   1_556  A
C1267      C1274   1.406       .  A
C1268      N1285   1.157       .  T
C1269      N1287   1.157       .  T
C1270      C1271   1.411       .  A
C1270      C1275   1.450       .  S
C1271      C1272   1.411       .  A
C1271      C1277   1.450       .  S
C1272      C1273   1.418   1_554  A
C1273      C1274   1.404       .  A
C1273      C1276   1.453       .  S
C1274      C1278   1.452       .  S
C1275      N1282   1.157       .  T
C1276      N1283   1.158       .  T
C1277      N1281   1.157       .  T
C1278      N1284   1.157       .  T
C1279      N1288   1.157       .  T
C1280      N1286   1.157       .  T
C1289      C1290   1.410       .  A
C1289      C1294   1.411       .  A
C1289      C1307   1.452       .  S
C1290      C1295   1.500       .  S
C1290      C1291   1.410       .  A
C1291      C1292   1.414       .  A
C1291      C1296   1.450       .  S
C1292      C1293   1.417       .  A
C1292      C1308   1.451       .  S
C1293      C1294   1.414       .  A
C1294      C1297   1.447       .  S
C1295      C1298   1.412       .  A
C1295      C1302   1.411       .  A
C1296      N1313   1.157       .  T
C1297      N1315   1.156       .  T
C1298      C1299   1.412       .  A
C1298      C1303   1.450       .  S
C1299      C1300   1.413       .  A
C1299      C1305   1.451       .  S
C1300      C1301   1.415       .  A
C1301      C1302   1.413       .  A
C1301      C1304   1.451       .  S
C1302      C1306   1.450       .  S
C1303      N1310   1.157       .  T
C1304      N1311   1.157       .  T
C1305      N1309   1.157       .  T
C1306      N3552   1.157       .  T
C1307      N1316   1.157       .  T
C1308      N1314   1.157       .  T
N1312      C3546   1.157       .  T
C1317      C1318   1.412       .  A
C1317      C1322   1.414       .  A
C1317      C1335   1.450       .  S
C1318      C1323   1.504       .  S
C1318      C1319   1.413       .  A
C1319      C1320   1.413       .  A
C1319      C1324   1.451       .  S
C1320      C1321   1.415       .  A
C1320      C1336   1.451       .  S
C1321      C1322   1.416       .  A
C1322      C1325   1.451       .  S
C1323      C1326   1.411       .  A
C1323      C1330   1.414       .  A
C1324      N1341   1.157       .  T
C1325      N1343   1.157       .  T
C1326      C1327   1.411       .  A
C1326      C1331   1.451       .  S
C1327      C1328   1.415       .  A
C1327      C1333   1.452       .  S
C1328      C1329   1.413       .  A
C1329      C1330   1.415       .  A
C1329      C1332   1.450       .  S
C1330      C1334   1.450       .  S
C1331      N1338   1.157       .  T
C1332      N1339   1.157       .  T
C1333      N1337   1.157       .  T
C1334      N1340   1.157       .  T
C1335      N1344   1.157       .  T
C1336      N1342   1.157       .  T
C1345      C1346   1.411       .  A
C1345      C1350   1.408       .  A
C1345      C1363   1.451       .  S
C1346      C1351   1.494   1_545  S
C1346      C1347   1.410       .  A
C1347      C1348   1.411       .  A
C1347      C1352   1.450   1_545  S
C1348      C1349   1.415       .  A
C1348      C1364   1.451       .  S
C1349      C1350   1.412       .  A
C1350      C1353   1.452       .  S
C1351      C1354   1.406       .  A
C1351      C1358   1.412       .  A
C1352      N1369   1.157       .  T
C1353      N1371   1.157       .  T
C1354      C1355   1.407       .  A
C1354      C1359   1.453       .  S
C1355      C1356   1.422       .  A
C1355      C1361   1.453       .  S
C1356      C1357   1.415       .  A
C1357      C1358   1.414       .  A
C1357      C1360   1.450       .  S
C1358      C1362   1.450   1_565  S
C1359      N1366   1.157       .  T
C1360      N3607   1.157   1_455  T
C1361      N1365   1.158       .  T
C1362      N1368   1.157       .  T
C1363      N1372   1.157   1_545  T
C1364      N1370   1.158       .  T
N1367      C3600   1.157       .  T
C1373      C1374   1.413       .  A
C1373      C1378   1.410       .  A
C1373      C1391   1.451       .  S
C1374      C1379   1.495       .  S
C1374      C1375   1.413       .  A
C1375      C1376   1.407       .  A
C1375      C1380   1.451       .  S
C1376      C1377   1.409       .  A
C1376      C1392   1.451       .  S
C1377      C1378   1.411       .  A
C1378      C1381   1.451       .  S
C1379      C1382   1.410       .  A
C1379      C1386   1.414       .  A
C1380      N1397   1.157       .  T
C1381      N1399   1.158       .  T
C1382      C1383   1.408       .  A
C1382      C1387   1.451       .  S
C1383      C1384   1.416       .  A
C1383      C1389   1.452       .  S
C1384      C1385   1.413       .  A
C1385      C1386   1.410       .  A
C1385      C1388   1.451       .  S
C1386      C1390   1.452       .  S
C1387      N1394   1.157       .  T
C1388      N1395   1.157       .  T
C1389      N1393   1.157       .  T
C1390      N1396   1.157       .  T
C1391      N1400   1.157       .  T
C1392      N1398   1.157       .  T
C1401      C1402   1.414       .  A
C1401      C1406   1.414       .  A
C1401      C1419   1.451       .  S
C1402      C1407   1.506       .  S
C1402      C1403   1.413       .  A
C1403      C1404   1.414       .  A
C1403      C1408   1.450       .  S
C1404      C1405   1.416       .  A
C1404      C1420   1.451       .  S
C1405      C1406   1.413       .  A
C1406      C1409   1.451       .  S
C1407      C1410   1.416       .  A
C1407      C1414   1.412       .  A
C1408      N1425   1.157       .  T
C1409      N1427   1.157       .  T
C1410      C1411   1.416       .  A
C1410      C1415   1.450       .  S
C1411      C1412   1.412       .  A
C1411      C1417   1.450       .  S
C1412      C1413   1.415       .  A
C1413      C1414   1.411       .  A
C1413      C3656   1.452       .  S
C1414      C1418   1.451       .  S
C1415      N1422   1.157       .  T
C1416      C3653   1.452       .  S
C1416      N1423   1.157       .  T
C1417      N1421   1.157       .  T
C1418      N3664   1.157       .  T
C1419      N1428   1.157       .  T
C1420      N1426   1.157       .  T
N1424      C3658   1.157       .  T
C1429      C1430   1.413       .  A
C1429      C1434   1.417       .  A
C1429      C1447   1.450       .  S
C1430      C1435   1.514       .  S
C1430      C1431   1.414       .  A
C1431      C1432   1.417       .  A
C1431      C1436   1.450       .  S
C1432      C1433   1.417       .  A
C1432      C1448   1.451       .  S
C1433      C1434   1.417       .  A
C1434      C1437   1.451       .  S
C1435      C1438   1.411       .  A
C1435      C1442   1.410       .  A
C1436      N1453   1.157       .  T
C1437      N1455   1.157       .  T
C1438      C1439   1.420       .  A
C1438      C1443   1.451       .  S
C1439      C1440   1.428       .  A
C1439      C1445   1.451       .  S
C1440      C1441   1.427       .  A
C1441      C1442   1.417       .  A
C1441      C1444   1.451       .  S
C1442      C1446   1.452       .  S
C1443      N1450   1.157       .  T
C1444      N1451   1.158       .  T
C1445      N1449   1.157       .  T
C1446      N1452   1.157       .  T
C1447      N1456   1.157       .  T
C1448      N1454   1.157       .  T
C1457      C1458   1.414       .  A
C1457      C1462   1.413       .  A
C1457      C1475   1.450       .  S
C1458      C1463   1.504       .  S
C1458      C1459   1.413       .  A
C1459      C1460   1.411       .  A
C1459      C1464   1.451       .  S
C1460      C1461   1.415       .  A
C1460      C1476   1.452       .  S
C1461      C1462   1.413       .  A
C1462      C1465   1.451       .  S
C1463      C1466   1.411       .  A
C1463      C1470   1.414       .  A
C1464      N1481   1.157       .  T
C1465      N1483   1.157       .  T
C1466      C1467   1.410       .  A
C1466      C1471   1.452       .  S
C1467      C1468   1.418       .  A
C1467      C1473   1.452       .  S
C1468      C1469   1.415       .  A
C1469      C1470   1.414       .  A
C1469      C1472   1.451       .  S
C1470      C1474   1.451       .  S
C1471      N1478   1.157       .  T
C1472      N1479   1.157       .  T
C1473      N1477   1.158       .  T
C1474      N1480   1.157       .  T
C1475      N1484   1.157       .  T
C1476      N1482   1.158       .  T
C1485      C1486   1.410       .  A
C1485      C1490   1.410       .  A
C1485      C1503   1.451       .  S
C1486      C1491   1.493       .  S
C1486      C1487   1.411       .  A
C1487      C1488   1.408       .  A
C1487      C1492   1.452       .  S
C1488      C1489   1.413       .  A
C1488      C1504   1.452       .  S
C1489      C1490   1.415       .  A
C1490      C1493   1.451       .  S
C1491      C1494   1.413       .  A
C1491      C1498   1.409       .  A
C1492      N1509   1.157       .  T
C1493      N1511   1.157       .  T
C1494      C1495   1.410       .  A
C1494      C1499   1.451       .  S
C1495      C1496   1.411       .  A
C1495      C1501   1.451       .  S
C1496      C1497   1.416       .  A
C1497      C1498   1.408       .  A
C1497      C1500   1.452       .  S
C1498      C1502   1.451       .  S
C1499      N1506   1.157       .  T
C1500      N1507   1.157       .  T
C1501      N3745   1.157   1_455  T
C1502      N1508   1.157       .  T
C1503      N1512   1.157       .  T
C1504      N1510   1.157       .  T
N1505      C3741   1.157       .  T
C1513      C1514   1.414       .  A
C1513      C1518   1.416       .  A
C1513      C1531   1.450       .  S
C1514      C1519   1.508       .  S
C1514      C1515   1.413       .  A
C1515      C1516   1.414       .  A
C1515      C1520   1.450       .  S
C1516      C1517   1.414       .  A
C1516      C1532   1.451       .  S
C1517      C1518   1.414       .  A
C1518      C1521   1.451       .  S
C1519      C1522   1.412       .  A
C1519      C1526   1.412       .  A
C1520      N1537   1.157       .  T
C1521      N1539   1.157       .  T
C1522      C1523   1.415       .  A
C1522      C1527   1.450       .  S
C1523      C1524   1.417       .  A
C1523      C1529   1.451       .  S
C1524      C1525   1.419       .  A
C1525      C1526   1.416       .  A
C1525      C1528   1.451       .  S
C1526      C1530   1.450       .  S
C1527      N1534   1.157       .  T
C1528      N1535   1.157       .  T
C1529      N1533   1.157       .  T
C1530      N1536   1.157       .  T
C1531      N1540   1.157       .  T
C1532      N1538   1.157       .  T
C1541      C1542   1.411       .  A
C1541      C1546   1.412       .  A
C1541      C1559   1.450       .  S
C1542      C1547   1.494       .  S
C1542      C1543   1.412       .  A
C1543      C1544   1.406       .  A
C1543      C1548   1.451       .  S
C1544      C1545   1.409       .  A
C1544      C1560   1.451       .  S
C1545      C1546   1.413       .  A
C1546      C1549   1.450       .  S
C1547      C1550   1.406       .  A
C1547      C1554   1.412       .  A
C1548      N1565   1.157       .  T
C1549      N1567   1.157       .  T
C1550      C1551   1.410       .  A
C1550      C1555   1.451       .  S
C1551      C1552   1.421       .  A
C1551      C1557   1.452       .  S
C1552      C1553   1.415       .  A
C1553      C1554   1.410       .  A
C1553      C1556   1.451       .  S
C1554      C1558   1.451       .  S
C1555      N1562   1.157       .  T
C1556      N1563   1.157       .  T
C1557      N1561   1.158       .  T
C1558      N1564   1.157       .  T
C1559      N1568   1.157       .  T
C1560      N1566   1.157       .  T
C1569      C1570   1.415       .  A
C1569      C1574   1.414       .  A
C1569      C1587   1.450       .  S
C1570      C1575   1.503       .  S
C1570      C1571   1.412       .  A
C1571      C1572   1.411       .  A
C1571      C1576   1.451       .  S
C1572      C1573   1.413       .  A
C1572      C1588   1.452       .  S
C1573      C1574   1.411       .  A
C1574      C1577   1.451       .  S
C1575      C1578   1.411       .  A
C1575      C1582   1.415       .  A
C1576      N1593   1.157       .  T
C1577      N1595   1.157       .  T
C1578      C1579   1.410       .  A
C1578      C1583   1.451       .  S
C1579      C1580   1.415       .  A
C1579      C1585   1.452       .  S
C1580      C1581   1.412       .  A
C1581      C1582   1.414       .  A
C1581      C1584   1.451       .  S
C1582      C1586   1.450       .  S
C1583      N1590   1.157       .  T
C1584      N1591   1.157       .  T
C1585      N1589   1.157       .  T
C1586      N1592   1.157       .  T
C1587      N1596   1.157       .  T
C1588      N1594   1.157       .  T
C1597      C1598   1.409       .  A
C1597      C1602   1.407       .  A
C1597      C1615   1.451       .  S
C1598      C1603   1.490       .  S
C1598      C1599   1.411       .  A
C1599      C1600   1.408       .  A
C1599      C1604   1.451       .  S
C1600      C1601   1.413       .  A
C1600      C1616   1.452       .  S
C1601      C1602   1.413       .  A
C1602      C1605   1.451       .  S
C1603      C1606   1.409       .  A
C1603      C1610   1.404       .  A
C1604      N1621   1.157   1_556  T
C1605      N1623   1.157       .  T
C1606      C1607   1.412       .  A
C1606      C1611   1.451       .  S
C1607      C1608   1.419       .  A
C1607      C1613   1.450       .  S
C1608      C1609   1.428       .  A
C1609      C1610   1.406       .  A
C1609      C1612   1.452       .  S
C1610      C1614   1.453       .  S
C1611      N1618   1.157       .  T
C1612      N1619   1.158       .  T
C1613      N1617   1.157       .  T
C1614      N1620   1.157       .  T
C1615      N1624   1.157       .  T
C1616      N1622   1.157   1_556  T
C1625      C1626   1.410       .  A
C1625      C1630   1.413       .  A
C1625      C1643   1.451       .  S
C1626      C1631   1.503       .  S
C1626      C1627   1.412       .  A
C1627      C1628   1.414       .  A
C1627      C1632   1.451       .  S
C1628      C1629   1.417       .  A
C1628      C1644   1.451       .  S
C1629      C1630   1.417       .  A
C1630      C1633   1.451       .  S
C1631      C1638   1.414       .  A
C1631      C3874   1.411       .  A
C1632      N1649   1.157   1_455  T
C1633      N1651   1.157       .  T
C1634      C1635   1.411       .  A
C1634      C3871   1.411       .  A
C1634      C1639   1.451       .  S
C1635      C1636   1.416       .  A
C1635      C1641   1.452       .  S
C1636      C3877   1.412       .  A
C1637      C1638   1.414       .  A
C1637      C3876   1.412       .  A
C1637      C1640   1.450       .  S
C1638      C1642   1.450       .  S
C1639      N1646   1.157       .  T
C1640      N1647   1.157       .  T
C1641      N1645   1.157       .  T
C1642      N1648   1.157       .  T
C1643      N1652   1.157       .  T
C1644      N1650   1.157   1_455  T
C1653      C1658   1.408       .  A
C1653      C3894   1.410   1_554  A
C1653      C1671   1.451       .  S
C1654      C1659   1.492       .  S
C1654      C1655   1.411       .  A
C1654      C3893   1.410   1_556  A
C1655      C3896   1.409       .  A
C1655      C1660   1.450       .  S
C1656      C1657   1.411       .  A
C1656      C3895   1.409       .  A
C1656      C1672   1.451       .  S
C1657      C1658   1.413   1_556  A
C1658      C1661   1.452       .  S
C1659      C1662   1.405       .  A
C1659      C1666   1.408       .  A
C1660      N1677   1.157       .  T
C1661      N1679   1.157       .  T
C1662      C1663   1.408       .  A
C1662      C1667   1.453       .  S
C1663      C1664   1.427       .  A
C1663      C1669   1.453       .  S
C1664      C1665   1.421       .  A
C1665      C1666   1.412       .  A
C1665      C1668   1.450       .  S
C1666      C1670   1.451       .  S
C1667      N3914   1.158       .  T
C1668      N1675   1.158   1_556  T
C1669      N1673   1.157       .  T
C1670      N1676   1.157       .  T
C1671      N1680   1.157       .  T
C1672      N1678   1.157       .  T
N1674      C3907   1.158       .  T
C1681      C1682   1.411       .  A
C1681      C1686   1.407       .  A
C1681      C1699   1.451       .  S
C1682      C1687   1.486       .  S
C1682      C1683   1.409       .  A
C1683      C1684   1.406       .  A
C1683      C1688   1.451   1_556  S
C1684      C1685   1.411       .  A
C1684      C1700   1.452   1_556  S
C1685      C1686   1.411       .  A
C1686      C1689   1.451       .  S
C1687      C1690   1.406       .  A
C1687      C1694   1.411       .  A
C1688      N1705   1.157       .  T
C1689      N1707   1.157       .  T
C1690      C1691   1.405       .  A
C1690      C1695   1.452       .  S
C1691      C1692   1.417       .  A
C1691      C1697   1.453       .  S
C1692      C1693   1.412       .  A
C1693      C1694   1.409       .  A
C1693      C1696   1.450       .  S
C1694      C1698   1.451       .  S
C1695      N1702   1.157   1_556  T
C1696      N1703   1.157       .  T
C1697      N1701   1.157       .  T
C1698      N1704   1.157       .  T
C1699      N1708   1.157       .  T
C1700      N1706   1.157       .  T
C1709      C1710   1.410       .  A
C1709      C3954   1.408       .  A
C1709      C1727   1.451       .  S
C1710      C1715   1.498       .  S
C1710      C1711   1.412       .  A
C1711      C1712   1.414       .  A
C1711      C1716   1.450       .  S
C1712      C1713   1.415       .  A
C1712      C1728   1.450       .  S
C1713      C2602   1.487       .  S
C1713      C3954   1.415       .  A
C1714      C3949   1.408       .  A
C1714      C3953   1.415       .  A
C1714      C1717   1.452       .  S
C1715      C1718   1.406       .  A
C1715      C1722   1.410       .  A
C1716      N1733   1.157       .  T
C1717      N1735   1.157       .  T
C1718      C1719   1.411       .  A
C1718      C1723   1.451       .  S
C1719      C1720   1.424       .  A
C1719      C1725   1.452       .  S
C1720      C1721   1.420       .  A
C1721      C1722   1.414       .  A
C1721      C1724   1.451       .  S
C1722      C3966   1.451   1_455  S
C1723      N1730   1.157       .  T
C1724      N1731   1.157   1_455  T
C1725      N1729   1.157       .  T
C1726      C3962   1.451       .  S
C1726      N1732   1.157       .  T
C1727      N1736   1.157       .  T
C1728      N1734   1.157       .  T
C1737      C1738   1.412       .  A
C1737      C1742   1.412       .  A
C1737      C1755   1.450   1_455  S
C1738      C3983   1.500   1_455  S
C1738      C1739   1.411       .  A
C1739      C1740   1.413       .  A
C1739      C1744   1.450       .  S
C1740      C1741   1.414       .  A
C1740      C1756   1.451       .  S
C1741      C1742   1.413       .  A
C1742      C1745   1.451       .  S
C1743      C3978   1.499       .  S
C1743      C1746   1.410       .  A
C1743      C1750   1.408       .  A
C1744      N1761   1.157       .  T
C1745      N1763   1.157       .  T
C1746      C1747   1.412       .  A
C1746      C1751   1.451       .  S
C1747      C1748   1.417       .  A
C1747      C1753   1.451       .  S
C1748      C1749   1.423       .  A
C1749      C1750   1.413       .  A
C1749      C1752   1.451       .  S
C1750      C3994   1.451       .  S
C1751      N1758   1.157       .  T
C1752      N1759   1.158       .  T
C1753      N1757   1.157       .  T
C1754      C3990   1.451   1_455  S
C1754      N1760   1.157       .  T
C1755      N4004   1.157       .  T
C1756      N1762   1.157       .  T
N1764      C3995   1.157       .  T
C1765      C1766   1.406       .  A
C1765      C1770   1.411       .  A
C1765      C1783   1.453       .  S
C1766      C1771   1.499       .  S
C1766      C1767   1.409       .  A
C1767      C1768   1.415       .  A
C1767      C1772   1.451       .  S
C1768      C1769   1.424       .  A
C1768      C1784   1.450       .  S
C1769      C1770   1.428       .  A
C1770      C1773   1.452       .  S
C1771      C1774   1.410       .  A
C1771      C1778   1.411       .  A
C1772      N1789   1.157       .  T
C1773      N1791   1.157       .  T
C1774      C1775   1.411       .  A
C1774      C1779   1.451       .  S
C1775      C1776   1.417       .  A
C1775      C1781   1.451       .  S
C1776      C1777   1.415       .  A
C1777      C1778   1.412       .  A
C1777      C1780   1.451       .  S
C1778      C1782   1.450       .  S
C1779      N1786   1.157       .  T
C1780      N1787   1.157       .  T
C1781      N1785   1.157       .  T
C1782      N1788   1.157       .  T
C1783      N1792   1.157       .  T
C1784      N1790   1.158       .  T
C1793      C1794   1.413       .  A
C1793      C1798   1.412       .  A
C1793      C1811   1.450       .  S
C1794      C1799   1.499       .  S
C1794      C1795   1.411       .  A
C1795      C1796   1.410       .  A
C1795      C1800   1.451       .  S
C1796      C1797   1.414       .  A
C1796      C1812   1.451       .  S
C1797      C1798   1.413       .  A
C1798      C1801   1.451       .  S
C1799      C1802   1.410       .  A
C1799      C1806   1.414       .  A
C1800      N1817   1.157       .  T
C1801      N1819   1.157       .  T
C1802      C1803   1.410       .  A
C1802      C1807   1.451       .  S
C1803      C1804   1.414       .  A
C1803      C1809   1.451       .  S
C1804      C1805   1.412       .  A
C1805      C1806   1.413       .  A
C1805      C1808   1.451       .  S
C1806      C1810   1.450       .  S
C1807      N1814   1.157       .  T
C1808      N1815   1.157       .  T
C1809      N1813   1.157       .  T
C1810      N1816   1.157       .  T
C1811      N1820   1.157       .  T
C1812      N1818   1.157       .  T
C1821      C1822   1.410       .  A
C1821      C1826   1.415       .  A
C1821      C1839   1.450       .  S
C1822      C1827   1.499       .  S
C1822      C1823   1.409       .  A
C1823      C1824   1.410       .  A
C1823      C1828   1.452       .  S
C1824      C1825   1.418       .  A
C1824      C1840   1.451       .  S
C1825      C1826   1.419       .  A
C1826      C1829   1.451       .  S
C1827      C1830   1.409       .  A
C1827      C1834   1.412       .  A
C1828      N1845   1.157       .  T
C1829      N1847   1.157       .  T
C1830      C1831   1.409       .  A
C1830      C1835   1.451       .  S
C1831      C1832   1.417       .  A
C1831      C1837   1.452       .  S
C1832      C1833   1.413       .  A
C1833      C1834   1.414       .  A
C1833      C1836   1.450       .  S
C1834      C1838   1.450       .  S
C1835      N1842   1.157       .  T
C1836      N1843   1.157       .  T
C1837      N1841   1.158       .  T
C1838      N1844   1.157       .  T
C1839      N1848   1.157       .  T
C1840      N1846   1.157       .  T
C1849      C1850   1.410       .  A
C1849      C1854   1.417       .  A
C1849      C1867   1.451       .  S
C1850      C1855   1.505       .  S
C1850      C1851   1.406       .  A
C1851      C1852   1.414       .  A
C1851      C1856   1.452       .  S
C1852      C1853   1.428       .  A
C1852      C1868   1.451       .  S
C1853      C1854   1.423       .  A
C1854      C1857   1.450       .  S
C1855      C1858   1.411       .  A
C1855      C1862   1.411       .  A
C1856      N1873   1.157       .  T
C1857      N1875   1.157       .  T
C1858      C1859   1.414       .  A
C1858      C1863   1.450       .  S
C1859      C1860   1.416       .  A
C1859      C1865   1.451       .  S
C1860      C1861   1.418       .  A
C1861      C1862   1.415       .  A
C1861      C1864   1.451       .  S
C1862      C1866   1.450       .  S
C1863      N1870   1.157       .  T
C1864      N1871   1.158       .  T
C1865      N1869   1.157       .  T
C1866      N1872   1.157       .  T
C1867      N1876   1.157       .  T
C1868      N1874   1.157       .  T
C1877      C1878   1.413       .  A
C1877      C1882   1.413       .  A
C1877      C1895   1.451       .  S
C1878      C1883   1.499       .  S
C1878      C1879   1.410       .  A
C1879      C1880   1.409       .  A
C1879      C1884   1.452       .  S
C1880      C1881   1.419       .  A
C1880      C1896   1.453       .  S
C1881      C1882   1.414       .  A
C1882      C1885   1.449       .  S
C1883      C1886   1.412       .  A
C1883      C1890   1.414       .  A
C1884      N1901   1.157       .  T
C1885      N1903   1.157       .  T
C1886      C1887   1.410       .  A
C1886      C1891   1.451       .  S
C1887      C1888   1.413       .  A
C1887      C1893   1.452       .  S
C1888      C1889   1.411       .  A
C1889      C1890   1.411       .  A
C1889      C1892   1.451       .  S
C1890      C1894   1.451       .  S
C1891      N1898   1.157       .  T
C1892      N1899   1.157       .  T
C1893      N1897   1.157       .  T
C1894      N1900   1.157       .  T
C1895      N1904   1.157       .  T
C1896      N1902   1.157       .  T
C1905      C1906   1.411       .  A
C1905      C4150   1.411   1_455  A
C1905      C1923   1.451   1_455  S
C1906      C1911   1.505       .  S
C1906      C1907   1.414       .  A
C1907      C1908   1.416       .  A
C1907      C1912   1.450       .  S
C1908      C4149   1.414       .  A
C1908      C1924   1.451       .  S
C1909      C1910   1.415       .  A
C1909      C4148   1.414       .  A
C1910      C4145   1.411       .  A
C1910      C1913   1.452       .  S
C1911      C1914   1.415       .  A
C1911      C1918   1.411       .  A
C1912      N1929   1.157       .  T
C1913      N1931   1.157       .  T
C1914      C1915   1.415       .  A
C1914      C4159   1.450   1_455  S
C1915      C1916   1.412       .  A
C1915      C1921   1.450       .  S
C1916      C1917   1.416       .  A
C1917      C1918   1.412       .  A
C1917      C1920   1.452       .  S
C1918      C1922   1.451       .  S
C1919      C4154   1.450       .  S
C1919      N1926   1.157       .  T
C1920      N1927   1.157       .  T
C1921      N4165   1.157   1_455  T
C1922      N1928   1.157       .  T
C1923      N1932   1.157       .  T
C1924      N1930   1.157       .  T
N1925      C4161   1.157       .  T
C1933      C1934   1.410       .  A
C1933      C4178   1.410       .  A
C1933      C1951   1.451       .  S
C1934      C1939   1.498       .  S
C1934      C1935   1.412       .  A
C1935      C4176   1.412       .  A
C1935      C1940   1.450       .  S
C1936      C1937   1.413       .  A
C1936      C4175   1.413       .  A
C1936      C1952   1.450       .  S
C1937      C1938   1.415       .  A
C1938      C4173   1.410       .  A
C1938      C1941   1.452       .  S
C1939      C1942   1.410       .  A
C1939      C1946   1.406       .  A
C1940      N1957   1.157       .  T
C1941      N1959   1.157       .  T
C1942      C1943   1.413       .  A
C1942      C1947   1.451       .  S
C1943      C1944   1.419       .  A
C1943      C1949   1.450       .  S
C1944      C1945   1.428       .  A
C1945      C1946   1.411       .  A
C1945      C1948   1.452       .  S
C1946      C1950   1.452       .  S
C1947      N1954   1.157       .  T
C1948      N1955   1.157       .  T
C1949      N1953   1.157       .  T
C1950      N4196   1.158       .  T
C1951      N1960   1.157       .  T
C1952      N1958   1.157       .  T
N1956      C4190   1.158       .  T
C1961      C1962   1.409       .  A
C1961      C1966   1.414       .  A
C1961      C1979   1.451       .  S
C1962      C1967   1.508       .  S
C1962      C1963   1.412       .  A
C1963      C1964   1.418       .  A
C1963      C1968   1.450       .  S
C1964      C1965   1.419       .  A
C1964      C1980   1.449       .  S
C1965      C1966   1.422       .  A
C1966      C1969   1.451       .  S
C1967      C1970   1.410       .  A
C1967      C1974   1.414       .  A
C1968      N1985   1.157       .  T
C1969      N1987   1.157       .  T
C1970      C1971   1.413       .  A
C1970      C1975   1.451       .  S
C1971      C1972   1.418       .  A
C1971      C1977   1.452       .  S
C1972      C1973   1.415       .  A
C1973      C1974   1.419       .  A
C1973      C1976   1.449       .  S
C1974      C1978   1.449       .  S
C1975      N1982   1.157       .  T
C1976      N1983   1.157       .  T
C1977      N1981   1.157       .  T
C1978      N1984   1.157       .  T
C1979      N1988   1.157       .  T
C1980      N1986   1.157       .  T
C1989      C1990   1.409       .  A
C1989      C1994   1.408       .  A
C1989      C2007   1.452       .  S
C1990      C1995   1.494   1_565  S
C1990      C1991   1.412       .  A
C1991      C1992   1.411       .  A
C1991      C1996   1.450   1_565  S
C1992      C1993   1.412       .  A
C1992      C2008   1.450       .  S
C1993      C1994   1.418       .  A
C1994      C1997   1.453       .  S
C1995      C1998   1.410       .  A
C1995      C2002   1.411       .  A
C1996      N2013   1.157       .  T
C1997      N2015   1.158       .  T
C1998      C1999   1.408       .  A
C1998      C2003   1.451       .  S
C1999      C2000   1.415       .  A
C1999      C2005   1.452       .  S
C2000      C2001   1.414       .  A
C2001      C2002   1.412       .  A
C2001      C2004   1.451       .  S
C2002      C2006   1.450   1_545  S
C2003      N2010   1.157       .  T
C2004      N2011   1.157       .  T
C2005      N2009   1.157       .  T
C2006      N2012   1.157       .  T
C2007      N2016   1.157       .  T
C2008      N2014   1.157       .  T
C2017      C2018   1.414       .  A
C2017      C2022   1.409       .  A
C2017      C2035   1.451       .  S
C2018      C2023   1.498       .  S
C2018      C2019   1.414       .  A
C2019      C2020   1.410       .  A
C2019      C2024   1.450       .  S
C2020      C2021   1.410       .  A
C2020      C2036   1.450       .  S
C2021      C2022   1.410       .  A
C2022      C2025   1.452       .  S
C2023      C2026   1.410       .  A
C2023      C2030   1.415       .  A
C2024      N2041   1.157       .  T
C2025      N2043   1.157       .  T
C2026      C2027   1.408       .  A
C2026      C2031   1.451       .  S
C2027      C2028   1.417       .  A
C2027      C2033   1.452       .  S
C2028      C2029   1.413       .  A
C2029      C2030   1.412       .  A
C2029      C2032   1.451       .  S
C2030      C2034   1.451       .  S
C2031      N2038   1.157       .  T
C2032      N2039   1.157       .  T
C2033      N2037   1.157       .  T
C2034      N2040   1.157       .  T
C2035      N2044   1.157       .  T
C2036      N2042   1.157       .  T
C2045      C2046   1.414       .  A
C2045      C2050   1.416       .  A
C2045      C2063   1.450       .  S
C2046      C2051   1.505       .  S
C2046      C2047   1.410       .  A
C2047      C2048   1.413       .  A
C2047      C2052   1.450       .  S
C2048      C2049   1.418       .  A
C2048      C2064   1.452       .  S
C2049      C2050   1.414       .  A
C2050      C2053   1.450       .  S
C2051      C2054   1.413       .  A
C2051      C2058   1.412       .  A
C2052      N2069   1.157       .  T
C2053      N2071   1.157       .  T
C2054      C2055   1.417       .  A
C2054      C2059   1.450       .  S
C2055      C2056   1.414       .  A
C2055      C2061   1.450       .  S
C2056      C2057   1.414       .  A
C2057      C2058   1.413       .  A
C2057      C2060   1.452       .  S
C2058      C2062   1.451       .  S
C2059      N2066   1.157       .  T
C2060      N2067   1.157       .  T
C2061      N2065   1.157       .  T
C2062      N2068   1.157       .  T
C2063      N2072   1.157       .  T
C2064      N2070   1.158       .  T
C2073      C2074   1.410       .  A
C2073      C2078   1.413       .  A
C2073      C2091   1.450       .  S
C2074      C2079   1.497       .  S
C2074      C2075   1.411       .  A
C2075      C2076   1.410       .  A
C2075      C2080   1.451       .  S
C2076      C2077   1.414       .  A
C2076      C2092   1.451       .  S
C2077      C2078   1.416       .  A
C2078      C2081   1.451       .  S
C2079      C2082   1.407       .  A
C2079      C2086   1.410       .  A
C2080      N2097   1.157       .  T
C2081      N2099   1.157       .  T
C2082      C2083   1.412       .  A
C2082      C2087   1.452       .  S
C2083      C2084   1.423       .  A
C2083      C2089   1.451       .  S
C2084      C2085   1.418       .  A
C2085      C2086   1.412       .  A
C2085      C2088   1.451       .  S
C2086      C2090   1.451       .  S
C2087      N2094   1.157       .  T
C2088      N2095   1.157       .  T
C2089      N2093   1.158       .  T
C2090      N2096   1.157       .  T
C2091      N2100   1.157       .  T
C2092      N2098   1.157       .  T
C2101      C2102   1.413       .  A
C2101      C2106   1.414       .  A
C2101      C2119   1.451       .  S
C2102      C2107   1.510       .  S
C2102      C2103   1.413       .  A
C2103      C2104   1.417       .  A
C2103      C2108   1.450       .  S
C2104      C2105   1.418       .  A
C2104      C2120   1.451       .  S
C2105      C2106   1.418       .  A
C2106      C2109   1.451       .  S
C2107      C2110   1.412       .  A
C2107      C2114   1.409       .  A
C2108      N2125   1.157       .  T
C2109      N2127   1.157       .  T
C2110      C2111   1.419       .  A
C2110      C2115   1.451       .  S
C2111      C2112   1.423       .  A
C2111      C2117   1.450       .  S
C2112      C2113   1.425       .  A
C2113      C2114   1.414       .  A
C2113      C2116   1.452       .  S
C2114      C2118   1.452       .  S
C2115      N2122   1.157       .  T
C2116      N2123   1.157       .  T
C2117      N2121   1.158       .  T
C2118      N2124   1.157       .  T
C2119      N2128   1.157       .  T
C2120      N2126   1.158       .  T
C2129      C2130   1.412       .  A
C2129      C2134   1.415       .  A
C2129      C2147   1.450       .  S
C2130      C2135   1.504       .  S
C2130      C2131   1.411       .  A
C2131      C2132   1.413       .  A
C2131      C2136   1.450       .  S
C2132      C2133   1.415       .  A
C2132      C2148   1.451       .  S
C2133      C2134   1.413       .  A
C2134      C2137   1.448       .  S
C2135      C2138   1.411       .  A
C2135      C2142   1.408       .  A
C2136      N2153   1.157       .  T
C2137      N4395   1.156       .  T
C2138      C2139   1.416       .  A
C2138      C4383   1.451       .  S
C2139      C2140   1.419       .  A
C2139      C2145   1.450       .  S
C2140      C2141   1.424       .  A
C2141      C2142   1.414       .  A
C2141      C2144   1.451       .  S
C2142      C2146   1.451       .  S
C2143      C4378   1.451       .  S
C2143      N2150   1.157       .  T
C2144      N2151   1.158       .  T
C2145      N2149   1.157   1_455  T
C2146      N2152   1.157       .  T
C2147      N2156   1.157       .  T
C2148      N2154   1.157       .  T
N2155      C4377   1.156       .  T
C2157      C2158   1.412   1_465  A
C2157      C2162   1.414       .  A
C2157      C2175   1.450   1_565  S
C2158      C4403   1.499       .  S
C2158      C2159   1.411   1_645  A
C2159      C2160   1.409       .  A
C2159      C4404   1.451   1_455  S
C2160      C2161   1.412       .  A
C2160      C2176   1.451       .  S
C2161      C2162   1.415       .  A
C2162      C2165   1.451       .  S
C2163      C4398   1.499       .  S
C2163      C2166   1.409       .  A
C2163      C2170   1.413       .  A
C2164      C4399   1.451       .  S
C2164      N2181   1.157   1_565  T
C2165      N2183   1.157       .  T
C2166      C2167   1.409       .  A
C2166      C4411   1.451       .  S
C2167      C2168   1.419       .  A
C2167      C2173   1.452       .  S
C2168      C2169   1.415       .  A
C2169      C2170   1.415       .  A
C2169      C2172   1.450       .  S
C2170      C2174   1.450   1_545  S
C2171      C4406   1.451   1_455  S
C2171      N2178   1.157       .  T
C2172      N2179   1.157       .  T
C2173      N2177   1.157       .  T
C2174      N2180   1.157       .  T
C2175      N2184   1.157       .  T
C2176      N2182   1.157       .  T
C2185      C2186   1.411       .  A
C2185      C2190   1.417       .  A
C2185      C2203   1.451       .  S
C2186      C2191   1.515       .  S
C2186      C2187   1.413       .  A
C2187      C2188   1.420       .  A
C2187      C2192   1.450       .  S
C2188      C2189   1.421       .  A
C2188      C2204   1.450       .  S
C2189      C2190   1.425       .  A
C2190      C2193   1.451       .  S
C2191      C2194   1.413       .  A
C2191      C2198   1.413       .  A
C2192      N2209   1.157       .  T
C2193      N2211   1.157       .  T
C2194      C2195   1.418       .  A
C2194      C2199   1.450       .  S
C2195      C2196   1.419       .  A
C2195      C2201   1.451       .  S
C2196      C2197   1.419       .  A
C2197      C2198   1.419       .  A
C2197      C2200   1.450       .  S
C2198      C2202   1.450       .  S
C2199      N2206   1.157       .  T
C2200      N2207   1.157       .  T
C2201      N2205   1.157       .  T
C2202      N2208   1.157       .  T
C2203      N2212   1.157       .  T
C2204      N2210   1.157       .  T
C2213      C2214   1.412       .  A
C2213      C2218   1.410       .  A
C2213      C2231   1.450       .  S
C2214      C2219   1.491       .  S
C2214      C2215   1.409       .  A
C2215      C2216   1.407       .  A
C2215      C2220   1.451       .  S
C2216      C2217   1.414       .  A
C2216      C2232   1.452       .  S
C2217      C2218   1.410       .  A
C2218      C2221   1.451       .  S
C2219      C2222   1.408       .  A
C2219      C2226   1.412       .  A
C2220      N2237   1.157       .  T
C2221      N2239   1.157       .  T
C2222      C2223   1.407       .  A
C2222      C2227   1.451       .  S
C2223      C2224   1.416       .  A
C2223      C2229   1.452       .  S
C2224      C2225   1.412       .  A
C2225      C2226   1.411       .  A
C2225      C2228   1.451       .  S
C2226      C2230   1.450       .  S
C2227      N2234   1.157       .  T
C2228      N2235   1.157       .  T
C2229      N2233   1.157       .  T
C2230      N2236   1.157       .  T
C2231      N2240   1.157       .  T
C2232      N2238   1.157       .  T
O2241      V2249   1.917       .  S
O2241      C2251   1.270       .  A
O2242      V2249   1.914       .  S
O2242      C2252   1.269       .  A
O2243      V2249   1.888       .  S
O2243      C2253   1.261       .  A
O2244      V2249   1.880       .  S
O2244      C2254   1.259       .  A
O2245      V2250   1.910       .  S
O2245      C2254   1.267       .  A
O2246      V2250   1.913       .  S
O2246      C2253   1.267       .  A
O2247      V2250   1.898       .  S
O2247      C2252   1.264       .  A
O2248      V2250   1.906       .  S
O2248      C2251   1.266       .  A
V2249      V2250   2.085       .  T
C2251      C4436   1.507       .  S
C2252      C4380   1.504       .  S
C2253      C4401   1.483       .  S
C2254      C4457   1.474       .  S
O2255      V2263   1.922       .  S
O2255      C2265   1.271       .  A
O2256      V2263   1.920       .  S
O2256      C2266   1.270       .  A
O2257      V2263   1.889       .  S
O2257      C2267   1.261       .  A
O2258      V2263   1.887       .  S
O2258      C2268   1.261       .  A
O2259      V2264   1.904       .  S
O2259      C2268   1.266       .  A
O2260      V2264   1.910       .  S
O2260      C2267   1.267       .  A
O2261      V2264   1.892       .  S
O2261      C2266   1.262       .  A
O2262      V2264   1.895       .  S
O2262      C2265   1.264       .  A
V2263      V2264   2.085       .  T
C2265      C4352   1.514       .  S
C2266      C4289   1.495       .  S
C2267      C4317   1.485       .  S
C2268      C4464   1.479       .  S
O2269      V2277   1.923       .  S
O2269      C2279   1.271       .  A
O2270      V2277   1.924       .  S
O2270      C2280   1.270       .  A
O2271      V2277   1.885       .  S
O2271      C2281   1.260       .  A
O2272      V2277   1.882       .  S
O2272      C2282   1.259       .  A
O2273      V2278   1.912       .  S
O2273      C2282   1.266       .  A
O2274      V2278   1.908       .  S
O2274      C2281   1.267       .  A
O2275      V2278   1.897       .  S
O2275      C2280   1.263       .  A
O2276      V2278   1.903       .  S
O2276      C2279   1.265       .  A
V2277      V2278   2.085       .  T
C2279      C4429   1.515       .  S
C2280      C4212   1.498       .  S
C2281      C4233   1.484       .  S
C2282      C4261   1.474       .  S
O2283      V2291   1.917       .  S
O2283      C2293   1.269       .  A
O2284      V2291   1.918       .  S
O2284      C2294   1.269       .  A
O2285      V2291   1.886       .  S
O2285      C2295   1.260       .  A
O2286      V2291   1.883       .  S
O2286      C2296   1.260       .  A
O2287      V2292   1.910       .  S
O2287      C2296   1.268       .  A
O2288      V2292   1.915       .  S
O2288      C2295   1.268       .  A
O2289      V2292   1.893       .  S
O2289      C2294   1.261       .  A
O2290      V2292   1.896       .  S
O2290      C2293   1.263       .  A
V2291      V2292   2.085       .  T
C2293      C4345   1.501       .  S
C2294      C4156   1.488       .  S
C2295      C4177   1.484       .  S
C2296      C4268   1.484       .  S
O2297      V2305   1.917       .  S
O2297      C2307   1.270       .  A
O2298      V2305   1.913       .  S
O2298      C2308   1.267       .  A
O2299      V2305   1.890       .  S
O2299      C2309   1.262       .  A
O2300      V2305   1.888       .  S
O2300      C2310   1.261       .  A
O2301      V2306   1.912       .  S
O2301      C2310   1.268       .  A
O2302      V2306   1.913       .  S
O2302      C2309   1.268       .  A
O2303      V2306   1.891       .  S
O2303      C2308   1.261       .  A
O2304      V2306   1.896       .  S
O2304      C2307   1.264       .  A
V2305      V2306   2.083       .  T
C2307      C4093   1.513       .  S
C2308      C4044   1.482       .  S
C2309      C4065   1.494       .  S
C2310      C4121   1.490       .  S
O2311      V2319   1.907       .  S
O2311      C2321   1.267       .  A
O2312      V2319   1.909       .  S
O2312      C2322   1.267       .  A
O2313      V2319   1.897       .  S
O2313      C2323   1.263       .  A
O2314      V2319   1.889       .  S
O2314      C2324   1.261       .  A
O2315      V2320   1.907       .  S
O2315      C2324   1.266       .  A
O2316      V2320   1.908       .  S
O2316      C2323   1.266       .  A
O2317      V2320   1.893       .  S
O2317      C2322   1.264       .  A
O2318      V2320   1.896       .  S
O2318      C2321   1.263       .  A
V2319      V2320   2.085       .  T
C2321      C4016   1.489       .  S
C2322      C3960   1.502       .  S
C2323      C3981   1.485       .  S
C2324      C4128   1.478       .  S
O2325      V2333   1.910       .  S
O2325      C2335   1.267       .  A
O2326      V2333   1.908   1_554  S
O2326      C2336   1.267       .  A
O2327      V2333   1.890       .  S
O2327      C2337   1.261       .  A
O2328      V2333   1.884       .  S
O2328      C2338   1.261       .  A
O2329      V2334   1.902       .  S
O2329      C2338   1.264       .  A
O2330      V2334   1.902       .  S
O2330      C2337   1.265       .  A
O2331      V2334   1.900   1_554  S
O2331      C2336   1.265       .  A
O2332      V2334   1.902       .  S
O2332      C2335   1.265       .  A
V2333      V2334   2.086       .  T
C2335      C4100   1.496       .  S
C2336      C3869   1.494       .  S
C2337      C3897   1.476       .  S
C2338      C3925   1.471       .  S
O2339      V2347   1.914       .  S
O2339      C2349   1.269       .  A
O2340      V2347   1.915       .  S
O2340      C2350   1.268       .  A
O2341      V2347   1.884       .  S
O2341      C2351   1.260       .  A
O2342      V2347   1.882       .  S
O2342      C2352   1.260       .  A
O2343      V2348   1.905       .  S
O2343      C2352   1.266       .  A
O2344      V2348   1.904       .  S
O2344      C2351   1.266       .  A
O2345      V2348   1.889       .  S
O2345      C2350   1.261       .  A
O2346      V2348   1.891       .  S
O2346      C2349   1.263       .  A
V2347      V2348   2.084       .  T
C2349      C4009   1.509       .  S
C2350      C3820   1.487   1_556  S
C2351      C3841   1.478       .  S
C2352      C3932   1.478       .  S
O2353      V2361   1.915       .  S
O2353      C2363   1.268       .  A
O2354      V2361   1.915       .  S
O2354      C2364   1.269       .  A
O2355      V2361   1.882       .  S
O2355      C2365   1.260       .  A
O2356      V2361   1.884       .  S
O2356      C2366   1.260       .  A
O2357      V2362   1.908       .  S
O2357      C2366   1.267       .  A
O2358      V2362   1.911       .  S
O2358      C2365   1.268       .  A
O2359      V2362   1.889       .  S
O2359      C2364   1.262       .  A
O2360      V2362   1.899       .  S
O2360      C2363   1.263       .  A
V2361      V2362   2.086       .  T
C2363      C3757   1.492       .  S
C2364      C3708   1.493       .  S
C2365      C3792   1.491       .  S
C2366      C3729   1.481       .  S
O2367      V2375   1.906       .  S
O2367      C2377   1.267       .  A
O2368      V2375   1.908       .  S
O2368      C2378   1.266       .  A
O2369      V2375   1.883       .  S
O2369      C2379   1.260       .  A
O2370      V2375   1.892       .  S
O2370      C2380   1.263       .  A
O2371      V2376   1.910       .  S
O2371      C2380   1.267       .  A
O2372      V2376   1.911       .  S
O2372      C2379   1.265       .  A
O2373      V2376   1.903       .  S
O2373      C2378   1.265       .  A
O2374      V2376   1.914       .  S
O2374      C2377   1.268       .  A
V2375      V2376   2.084       .  T
C2377      C3680   1.522       .  S
C2378      C3645   1.491       .  S
C2379      C3785   1.475       .  S
C2380      C4408   1.492       .  S
O2381      V2389   1.912       .  S
O2381      C2391   1.268       .  A
O2382      V2389   1.909       .  S
O2382      C2392   1.267       .  A
O2383      V2389   1.885       .  S
O2383      C2393   1.261       .  A
O2384      V2389   1.886       .  S
O2384      C2394   1.261       .  A
O2385      V2390   1.908       .  S
O2385      C2394   1.266       .  A
O2386      V2390   1.907       .  S
O2386      C2393   1.266       .  A
O2387      V2390   1.902       .  S
O2387      C2392   1.264       .  A
O2388      V2390   1.907       .  S
O2388      C2391   1.266       .  A
V2389      V2390   2.085       .  T
C2391      C3673   1.500       .  S
C2392      C3561   1.492       .  S
C2393      C3624   1.484       .  S
C2394      C3589   1.480       .  S
O2395      V2403   1.903       .  S
O2395      C2405   1.266       .  A
O2396      V2403   1.906       .  S
O2396      C2406   1.265       .  A
O2397      V2403   1.890       .  S
O2397      C2407   1.263       .  A
O2398      V2403   1.899       .  S
O2398      C2408   1.265       .  A
O2399      V2404   1.903       .  S
O2399      C2408   1.266       .  A
O2400      V2404   1.904       .  S
O2400      C2407   1.263       .  A
O2401      V2404   1.903       .  S
O2401      C2406   1.265       .  A
O2402      V2404   1.912       .  S
O2402      C2405   1.268       .  A
V2403      V2404   2.085       .  T
C2405      C3764   1.501       .  S
C2406      C3540   1.487       .  S
C2407      C3617   1.474       .  S
C2408      C3988   1.498       .  S
O2409      V2417   1.923       .  S
O2409      C2419   1.271       .  A
O2410      V2417   1.925   1_556  S
O2410      C2420   1.271       .  A
O2411      V2417   1.876   1_556  S
O2411      C2421   1.258       .  A
O2412      V2417   1.882       .  S
O2412      C2422   1.260   1_554  A
O2413      V2418   1.911       .  S
O2413      C2422   1.268       .  A
O2414      V2418   1.908       .  S
O2414      C2421   1.267       .  A
O2415      V2418   1.893       .  S
O2415      C2420   1.263       .  A
O2416      V2418   1.898   1_554  S
O2416      C2419   1.264       .  A
V2417      V2418   2.081   1_554  T
C2419      C3477   1.506       .  S
C2420      C3449   1.503       .  S
C2421      C3505   1.471       .  S
C2422      C3904   1.500       .  S
O2423      V2431   1.920       .  S
O2423      C2433   1.271       .  A
O2424      V2431   1.924   1_556  S
O2424      C2434   1.271       .  A
O2425      V2431   1.873       .  S
O2425      C2435   1.258       .  A
O2426      V2431   1.878       .  S
O2426      C2436   1.258       .  A
O2427      V2432   1.913       .  S
O2427      C2436   1.269       .  A
O2428      V2432   1.913       .  S
O2428      C2435   1.269       .  A
O2429      V2432   1.890   1_556  S
O2429      C2434   1.261       .  A
O2430      V2432   1.895       .  S
O2430      C2433   1.263       .  A
V2431      V2432   2.077       .  T
C2433      C3428   1.514       .  S
C2434      C3365   1.491       .  S
C2435      C3512   1.478       .  S
C2436      C3393   1.501       .  S
O2437      V2445   1.924       .  S
O2437      C2447   1.272       .  A
O2438      V2445   1.922       .  S
O2438      C2448   1.270       .  A
O2439      V2445   1.875       .  S
O2439      C2449   1.257       .  A
O2440      V2445   1.880       .  S
O2440      C2450   1.260       .  A
O2441      V2446   1.913       .  S
O2441      C2450   1.268       .  A
O2442      V2446   1.907       .  S
O2442      C2449   1.267       .  A
O2443      V2446   1.890       .  S
O2443      C2448   1.261       .  A
O2444      V2446   1.894       .  S
O2444      C2447   1.263       .  A
V2445      V2446   2.083       .  T
C2447      C3484   1.523       .  S
C2448      C3281   1.491       .  S
C2449      C3344   1.473       .  S
C2450      C3309   1.482       .  S
O2451      V2459   1.923       .  S
O2451      C2461   1.271       .  A
O2452      V2459   1.924       .  S
O2452      C2462   1.271       .  A
O2453      V2459   1.872       .  S
O2453      C2463   1.257       .  A
O2454      V2459   1.882       .  S
O2454      C2464   1.259       .  A
O2455      V2460   1.918       .  S
O2455      C2464   1.271       .  A
O2456      V2460   1.913       .  S
O2456      C2463   1.267       .  A
O2457      V2460   1.890       .  S
O2457      C2462   1.261       .  A
O2458      V2460   1.893       .  S
O2458      C2461   1.263       .  A
V2459      V2460   2.082       .  T
C2461      C3421   1.510       .  S
C2462      C3260   1.497       .  S
C2463      C3337   1.470       .  S
C2464      C4184   1.505       .  S
O2465      C2475   1.270   1_455  A
O2466      V2473   1.923       .  S
O2466      C2476   1.270       .  A
O2467      V2473   1.885       .  S
O2467      C2477   1.261       .  A
O2468      C2478   1.259   1_455  A
O2469      V2474   1.913       .  S
O2469      C2478   1.269       .  A
O2470      V2474   1.913   1_455  S
O2471      V2474   1.893   1_455  S
O2472      V2474   1.901       .  S
O2472      C2475   1.265       .  A
C2475      C3197   1.510       .  S
C2476      C4373   1.490       .  S
C2477      C3596   1.493       .  S
C2478      C3225   1.501       .  S
O2479      V2487   1.920       .  S
O2479      C2489   1.270       .  A
O2480      V2487   1.921       .  S
O2480      C2490   1.269       .  A
O2481      V2487   1.893       .  S
O2481      C2491   1.262       .  A
O2482      V2487   1.882       .  S
O2482      C2492   1.260       .  A
O2483      V2488   1.904       .  S
O2483      C2492   1.264       .  A
O2484      V2488   1.899       .  S
O2484      C2491   1.266       .  A
O2485      V2488   1.894       .  S
O2485      C2490   1.262       .  A
O2486      V2488   1.896       .  S
O2486      C2489   1.264       .  A
V2487      V2488   2.086       .  T
C2489      C3169   1.507       .  S
C2490      C4296   1.491       .  S
C2491      C3141   1.486       .  S
C2492      C3232   1.471       .  S
O2493      V2501   1.918       .  S
O2493      C2503   1.269       .  A
O2494      V2501   1.919   1_554  S
O2494      C2504   1.270       .  A
O2495      V2501   1.889       .  S
O2495      C2505   1.261       .  A
O2496      V2501   1.876       .  S
O2496      C2506   1.259   1_556  A
O2497      V2502   1.906   1_554  S
O2497      C2506   1.265       .  A
O2498      V2502   1.907       .  S
O2498      C2505   1.268       .  A
O2499      V2502   1.900   1_554  S
O2499      C2504   1.265       .  A
O2500      V2502   1.904       .  S
O2500      C2503   1.265       .  A
V2501      V2502   2.082       .  T
C2503      C3204   1.503       .  S
C2504      C4205   1.506       .  S
C2505      C3085   1.502       .  S
C2506      C3113   1.467       .  S
O2507      V2515   1.915   1_655  S
O2507      C2517   1.268       .  A
O2510      V2515   1.883   1_655  S
O2510      C2520   1.260       .  A
O2511      V2516   1.899       .  S
O2511      C2520   1.265   1_554  A
O2512      V2516   1.900   1_556  S
O2512      C2519   1.265   1_655  A
O2513      V2516   1.894       .  S
O2513      C2518   1.263   1_655  A
O2514      V2516   1.901   1_556  S
O2514      C2517   1.264       .  A
V2515      V2516   2.086   1_456  T
C2517      C3176   1.493       .  S
C2518      C4149   1.491       .  S
C2520      C3120   1.474   1_556  S
O2521      V2529   1.915       .  S
O2521      C2531   1.269       .  A
O2522      V2529   1.917       .  S
O2522      C2532   1.269       .  A
O2523      V2529   1.883       .  S
O2523      C2533   1.260   1_655  A
O2524      V2529   1.891       .  S
O2524      C2534   1.262       .  A
O2525      V2530   1.910       .  S
O2525      C2534   1.267       .  A
O2527      V2530   1.897       .  S
O2527      C2532   1.263       .  A
V2529      V2530   2.086       .  T
C2532      C3456   1.494       .  S
C2534      C4072   1.488       .  S
O2535      V2543   1.922       .  S
O2535      C2545   1.270       .  A
O2536      V2543   1.921       .  S
O2536      C2546   1.270       .  A
O2537      V2543   1.880       .  S
O2537      C2547   1.259       .  A
O2538      V2543   1.884       .  S
O2538      C2548   1.260       .  A
O2539      V2544   1.910       .  S
O2539      C2548   1.267       .  A
O2540      V2544   1.909       .  S
O2540      C2547   1.268       .  A
O2541      V2544   1.890       .  S
O2541      C2546   1.261       .  A
O2542      V2544   1.898       .  S
O2542      C2545   1.263       .  A
V2543      V2544   2.085       .  T
C2545      C3008   1.495       .  S
C2546      C3372   1.489       .  S
C2547      C3064   1.486       .  S
C2548      C3148   1.483       .  S
O2549      V2557   1.913       .  S
O2549      C2559   1.268       .  A
O2550      V2557   1.919       .  S
O2550      C2560   1.269       .  A
O2551      V2557   1.879       .  S
O2551      C2561   1.260       .  A
O2552      V2557   1.879       .  S
O2552      C2562   1.259       .  A
O2553      V2558   1.914       .  S
O2553      C2562   1.269       .  A
O2554      V2558   1.911       .  S
O2554      C2561   1.268       .  A
O2555      V2558   1.894       .  S
O2555      C2560   1.262       .  A
O2556      V2558   1.901       .  S
O2556      C2559   1.264       .  A
V2557      V2558   2.080       .  T
C2559      C3036   1.495       .  S
C2560      C3288   1.487       .  S
C2561      C2980   1.489       .  S
C2562      C2945   1.503       .  S
O2563      V2571   1.918       .  S
O2563      C2573   1.269       .  A
O2564      V2571   1.918       .  S
O2564      C2574   1.269       .  A
O2565      V2571   1.889       .  S
O2565      C2575   1.261       .  A
O2566      V2571   1.899       .  S
O2566      C2576   1.264       .  A
O2567      V2572   1.902       .  S
O2567      C2576   1.266       .  A
O2569      V2572   1.896       .  S
O2569      C2574   1.263       .  A
O2570      V2572   1.904       .  S
O2570      C2573   1.266       .  A
V2571      V2572   2.085       .  T
C2573      C3001   1.506       .  S
C2574      C3253   1.494       .  S
C2575      C2973   1.471   1_655  S
C2576      C4324   1.499       .  S
O2577      V2585   1.908       .  S
O2577      C2587   1.267       .  A
O2578      V2585   1.910       .  S
O2578      C2588   1.266       .  A
O2579      V2585   1.887       .  S
O2579      C2589   1.261       .  A
O2580      V2585   1.881       .  S
O2580      C2590   1.261       .  A
O2581      V2586   1.905       .  S
O2581      C2590   1.266       .  A
O2582      V2586   1.906       .  S
O2582      C2589   1.266       .  A
O2583      V2586   1.895       .  S
O2583      C2588   1.263       .  A
O2584      V2586   1.903       .  S
O2584      C2587   1.265       .  A
V2585      V2586   2.085       .  T
C2587      C2889   1.491       .  S
C2588      C4037   1.485       .  S
C2589      C2952   1.479       .  S
C2590      C2917   1.479       .  S
O2591      V2599   1.911   1_655  S
O2591      C2601   1.268       .  A
O2593      C2603   1.262       .  A
O2594      V2599   1.882   1_655  S
O2594      C2604   1.260       .  A
O2595      V2600   1.903       .  S
O2595      C2604   1.264       .  A
O2596      V2600   1.900   1_455  S
O2597      V2600   1.891       .  S
O2597      C2602   1.263   1_655  A
O2598      V2600   1.896       .  S
O2598      C2601   1.264       .  A
V2599      V2600   2.087   1_455  T
C2601      C2861   1.504       .  S
C2603      C3736   1.480       .  S
C2604      C2924   1.467       .  S
O2605      V2613   1.918   1_655  S
O2605      C2615   1.270       .  A
O2608      V2613   1.880   1_655  S
O2608      C2618   1.258       .  A
O2609      V2614   1.913       .  S
O2609      C2618   1.267       .  A
O2610      V2614   1.910   1_455  S
O2610      C2617   1.268       .  A
O2611      V2614   1.888       .  S
O2611      C2616   1.261   1_655  A
O2612      V2614   1.896       .  S
O2612      C2615   1.264       .  A
V2613      V2614   2.086   1_455  T
C2615      C2896   1.505       .  S
C2616      C3876   1.487       .  S
C2618      C2833   1.475       .  S
O2619      V2627   1.914       .  S
O2619      C2629   1.269       .  A
O2620      V2627   1.915       .  S
O2620      C2630   1.268       .  A
O2621      V2627   1.879       .  S
O2621      C2631   1.259       .  A
O2622      V2627   1.878       .  S
O2622      C2632   1.260       .  A
O2623      V2628   1.913       .  S
O2623      C2632   1.268       .  A
O2624      V2628   1.914       .  S
O2624      C2631   1.269       .  A
O2625      V2628   1.890       .  S
O2625      C2630   1.260       .  A
O2626      V2628   1.893       .  S
O2626      C2629   1.262       .  A
V2627      V2628   2.086       .  T
C2629      C2868   1.495       .  S
C2630      C3813   1.483       .  S
C2631      C2805   1.485       .  S
C2632      C2840   1.490       .  S
O2633      V2641   1.912       .  S
O2633      C2643   1.268       .  A
O2634      V2641   1.913   1_556  S
O2634      C2644   1.267       .  A
O2635      V2641   1.887       .  S
O2635      C2645   1.261       .  A
O2636      V2641   1.890       .  S
O2636      C2646   1.262       .  A
O2637      V2642   1.905       .  S
O2637      C2646   1.265   1_556  A
O2638      V2642   1.902       .  S
O2638      C2645   1.266   1_556  A
O2639      V2642   1.896       .  S
O2639      C2644   1.263       .  A
O2640      V2642   1.902   1_554  S
O2640      C2643   1.265       .  A
V2641      V2642   2.083   1_554  T
C2643      C2749   1.517       .  S
C2644      C3568   1.487       .  S
C2645      C2777   1.483   1_554  S
C2646      C3092   1.482       .  S
O2647      V2655   1.914       .  S
O2647      C2657   1.269   1_556  A
O2648      V2655   1.916       .  S
O2648      C2658   1.269       .  A
O2649      V2655   1.877       .  S
O2650      V2655   1.878       .  S
O2650      C2660   1.259       .  A
O2651      V2656   1.915       .  S
O2651      C2660   1.270       .  A
O2652      C2659   1.268       .  A
O2653      V2656   1.897       .  S
O2653      C2658   1.263       .  A
V2655      V2656   2.080       .  T
C2658      C3533   1.492       .  S
C2659      C2784   1.476       .  S
C2660      C3848   1.499       .  S
O2661      V2669   1.916       .  S
O2661      C2671   1.269       .  A
O2662      V2669   1.919       .  S
O2662      C2672   1.269       .  A
O2663      V2669   1.879       .  S
O2663      C2673   1.260       .  A
O2664      V2669   1.882       .  S
O2664      C2674   1.260       .  A
O2665      V2670   1.912       .  S
O2665      C2674   1.268       .  A
O2667      V2670   1.888       .  S
O2667      C2672   1.261       .  A
V2669      V2670   2.086       .  T
C2671      C2756   1.489       .  S
C2672      C3652   1.490       .  S
C2674      C4240   1.481       .  S
O2675      V2683   1.908       .  S
O2675      C2685   1.267       .  A
O2676      V2683   1.909       .  S
O2676      C2686   1.267       .  A
O2677      V2683   1.884       .  S
O2677      C2687   1.260       .  A
O2678      V2683   1.888       .  S
O2678      C2688   1.262       .  A
O2679      V2684   1.908       .  S
O2679      C2688   1.267       .  A
O2680      V2684   1.907       .  S
O2680      C2687   1.265       .  A
O2681      V2684   1.894       .  S
O2681      C2686   1.263       .  A
O2682      V2684   1.902       .  S
O2682      C2685   1.265       .  A
V2683      V2684   2.087       .  T
C2685      C2728   1.498       .  S
C2686      C3701   1.488       .  S
C2687      C2700   1.473       .  S
C2688      C2812   1.485       .  S
C2689      C2690   1.412       .  A
C2689      C2694   1.411       .  A
C2689      C2707   1.451       .  S
C2690      C2695   1.493       .  S
C2690      C2691   1.407       .  A
C2691      C2692   1.408       .  A
C2691      C2696   1.452       .  S
C2692      C2693   1.420       .  A
C2692      C2708   1.452       .  S
C2693      C2694   1.415       .  A
C2695      C2698   1.412       .  A
C2695      C2702   1.412       .  A
C2696      N2713   1.157       .  T
C2697      N2715   1.157       .  T
C2698      C2699   1.408       .  A
C2698      C2703   1.451       .  S
C2699      C2700   1.410       .  A
C2699      C2705   1.452       .  S
C2700      C2701   1.411       .  A
C2701      C2702   1.409       .  A
C2701      C2704   1.451       .  S
C2703      N2710   1.157       .  T
C2705      N2709   1.157       .  T
C2706      N2712   1.157       .  T
C2707      N2716   1.157       .  T
C2708      N2714   1.158       .  T
C2717      C2718   1.412       .  A
C2717      C2735   1.450       .  S
C2718      C2723   1.503       .  S
C2718      C2719   1.410       .  A
C2719      C2720   1.413       .  A
C2719      C2724   1.451       .  S
C2720      C2721   1.418       .  A
C2720      C2736   1.450       .  S
C2722      C2725   1.451       .  S
C2723      C2726   1.411       .  A
C2723      C2730   1.410       .  A
C2724      N2741   1.157       .  T
C2725      N2743   1.157       .  T
C2726      C2727   1.414       .  A
C2727      C2728   1.416       .  A
C2727      C2733   1.450       .  S
C2728      C2729   1.420       .  A
C2729      C2730   1.414       .  A
C2729      C2732   1.451       .  S
C2730      C2734   1.451       .  S
C2731      N2738   1.157       .  T
C2732      N2739   1.157       .  T
C2734      N2740   1.157       .  T
C2735      N2744   1.157       .  T
C2736      N2742   1.157       .  T
C2745      C2746   1.407       .  A
C2745      C2750   1.415       .  A
C2745      C2763   1.452       .  S
C2746      C2751   1.505       .  S
C2746      C2747   1.409       .  A
C2747      C2748   1.417       .  A
C2747      C2752   1.451       .  S
C2748      C2749   1.426       .  A
C2748      C2764   1.451       .  S
C2749      C2750   1.428       .  A
C2750      C2753   1.451       .  S
C2751      C2754   1.412       .  A
C2752      N2769   1.157       .  T
C2753      N2771   1.158       .  T
C2754      C2755   1.413       .  A
C2754      C2759   1.450       .  S
C2755      C2761   1.451       .  S
C2756      C2757   1.414       .  A
C2757      C2758   1.415       .  A
C2757      C2760   1.451       .  S
C2758      C2762   1.450   1_655  S
C2759      N2766   1.157       .  T
C2760      N2767   1.157       .  T
C2761      N2765   1.157       .  T
C2762      N2768   1.157       .  T
C2763      N2772   1.157       .  T
C2764      N2770   1.157       .  T
C2773      C2774   1.413       .  A
C2773      C2778   1.410   1_556  A
C2773      C2791   1.451       .  S
C2774      C2779   1.493       .  S
C2774      C2775   1.408       .  A
C2775      C2776   1.407       .  A
C2775      C2780   1.452       .  S
C2776      C2777   1.419       .  A
C2776      C2792   1.453       .  S
C2777      C2778   1.412   1_556  A
C2778      C2781   1.451       .  S
C2779      C2786   1.411       .  A
C2780      N2797   1.157       .  T
C2781      N2799   1.157       .  T
C2782      C2783   1.410       .  A
C2782      C2787   1.451   1_556  S
C2783      C2789   1.451       .  S
C2784      C2785   1.413       .  A
C2785      C2786   1.407       .  A
C2785      C2788   1.452       .  S
C2786      C2790   1.451       .  S
C2787      N2794   1.157       .  T
C2788      N2795   1.157       .  T
C2789      N2793   1.157   1_556  T
C2790      N2796   1.157       .  T
C2791      N2800   1.157   1_556  T
C2792      N2798   1.157       .  T
C2801      C2802   1.409       .  A
C2801      C2806   1.408       .  A
C2801      C2819   1.451       .  S
C2802      C2807   1.493       .  S
C2802      C2803   1.410       .  A
C2803      C2804   1.411       .  A
C2803      C2808   1.450       .  S
C2804      C2805   1.415       .  A
C2804      C2820   1.450       .  S
C2805      C2806   1.417       .  A
C2806      C2809   1.452       .  S
C2807      C2810   1.412       .  A
C2807      C2814   1.407       .  A
C2808      N2825   1.157       .  T
C2809      N2827   1.157       .  T
C2810      C2811   1.412       .  A
C2810      C2815   1.450       .  S
C2811      C2812   1.412       .  A
C2811      C2817   1.450       .  S
C2812      C2813   1.419       .  A
C2813      C2814   1.407       .  A
C2813      C2816   1.452       .  S
C2814      C2818   1.452       .  S
C2815      N2822   1.157       .  T
C2816      N2823   1.157       .  T
C2817      N2821   1.157       .  T
C2818      N2824   1.157       .  T
C2819      N2828   1.158       .  T
C2820      N2826   1.158       .  T
C2829      C2830   1.412       .  A
C2829      C2834   1.408       .  A
C2829      C2847   1.451       .  S
C2830      C2835   1.496       .  S
C2830      C2831   1.413       .  A
C2831      C2832   1.410       .  A
C2831      C2836   1.450       .  S
C2832      C2833   1.411       .  A
C2832      C2848   1.451       .  S
C2833      C2834   1.412       .  A
C2834      C2837   1.452       .  S
C2835      C2838   1.408       .  A
C2835      C2842   1.413       .  A
C2836      N2853   1.157       .  T
C2837      N2855   1.157       .  T
C2838      C2839   1.407       .  A
C2838      C2843   1.452       .  S
C2839      C2840   1.419       .  A
C2839      C2845   1.453       .  S
C2840      C2841   1.415       .  A
C2841      C2842   1.412       .  A
C2841      C2844   1.451       .  S
C2842      C2846   1.451       .  S
C2843      N2850   1.157       .  T
C2844      N2851   1.158       .  T
C2845      N2849   1.157       .  T
C2846      N2852   1.157       .  T
C2847      N2856   1.157       .  T
C2848      N2854   1.157       .  T
C2857      C2858   1.408       .  A
C2857      C2862   1.412       .  A
C2857      C2875   1.452       .  S
C2858      C2863   1.502       .  S
C2858      C2859   1.410       .  A
C2859      C2860   1.415       .  A
C2859      C2864   1.451       .  S
C2860      C2861   1.421       .  A
C2860      C2876   1.451   1_655  S
C2861      C2862   1.423       .  A
C2862      C2865   1.452       .  S
C2863      C2866   1.411       .  A
C2863      C2870   1.410       .  A
C2864      N2881   1.157       .  T
C2865      N2883   1.157       .  T
C2866      C2867   1.414       .  A
C2866      C2871   1.451       .  S
C2867      C2868   1.417       .  A
C2867      C2873   1.451       .  S
C2868      C2869   1.419       .  A
C2869      C2870   1.413       .  A
C2869      C2872   1.451       .  S
C2870      C2874   1.451       .  S
C2871      N2878   1.157       .  T
C2872      N2879   1.157       .  T
C2873      N2877   1.157       .  T
C2874      N2880   1.157       .  T
C2875      N2884   1.157       .  T
C2876      N2882   1.157       .  T
C2885      C2886   1.413       .  A
C2885      C2890   1.416       .  A
C2885      C2903   1.449       .  S
C2886      C2891   1.504       .  S
C2886      C2887   1.411       .  A
C2887      C2888   1.413       .  A
C2887      C2892   1.451       .  S
C2888      C2889   1.415       .  A
C2888      C2904   1.451       .  S
C2889      C2890   1.414       .  A
C2890      C2893   1.450       .  S
C2891      C2894   1.411       .  A
C2891      C2898   1.408       .  A
C2892      N2909   1.157       .  T
C2893      N2911   1.157       .  T
C2894      C2895   1.417       .  A
C2894      C2899   1.450       .  S
C2895      C2896   1.419       .  A
C2895      C2901   1.450   1_655  S
C2896      C2897   1.423       .  A
C2897      C2898   1.414       .  A
C2897      C2900   1.452       .  S
C2898      C2902   1.451       .  S
C2899      N2906   1.157       .  T
C2900      N2907   1.157       .  T
C2902      N2908   1.157       .  T
C2903      N2912   1.157       .  T
C2904      N2910   1.157       .  T
C2913      C2914   1.408       .  A
C2913      C2918   1.405       .  A
C2913      C2931   1.451       .  S
C2914      C2919   1.489       .  S
C2914      C2915   1.412       .  A
C2915      C2916   1.409       .  A
C2915      C2920   1.451       .  S
C2916      C2917   1.413       .  A
C2916      C2932   1.451       .  S
C2917      C2918   1.416       .  A
C2918      C2921   1.452       .  S
C2919      C2922   1.413       .  A
C2919      C2926   1.411       .  A
C2920      N2937   1.157       .  T
C2921      N2939   1.157       .  T
C2922      C2923   1.407       .  A
C2922      C2927   1.451       .  S
C2923      C2924   1.408       .  A
C2923      C2929   1.451       .  S
C2924      C2925   1.410       .  A
C2925      C2926   1.406       .  A
C2925      C2928   1.451       .  S
C2926      C2930   1.451       .  S
C2927      N2934   1.157       .  T
C2929      N2933   1.157       .  T
C2930      N2936   1.157       .  T
C2931      N2940   1.157       .  T
C2932      N2938   1.157       .  T
C2941      C2942   1.405       .  A
C2941      C2946   1.406       .  A
C2941      C2959   1.454       .  S
C2942      C2947   1.495       .  S
C2942      C2943   1.410       .  A
C2943      C2944   1.415       .  A
C2943      C2948   1.451       .  S
C2944      C2945   1.421       .  A
C2944      C2960   1.450       .  S
C2945      C2946   1.428       .  A
C2946      C2949   1.453       .  S
C2947      C2950   1.411       .  A
C2947      C2954   1.411       .  A
C2948      N2965   1.157       .  T
C2949      N2967   1.157       .  T
C2950      C2951   1.408       .  A
C2950      C2955   1.451       .  S
C2951      C2952   1.414       .  A
C2951      C2957   1.452       .  S
C2952      C2953   1.412       .  A
C2953      C2954   1.410       .  A
C2953      C2956   1.451       .  S
C2954      C2958   1.450       .  S
C2955      N2962   1.157       .  T
C2956      N2963   1.157       .  T
C2957      N2961   1.157       .  T
C2958      N2964   1.157       .  T
C2959      N2968   1.157       .  T
C2960      N2966   1.158       .  T
C2969      C2970   1.412       .  A
C2969      C2974   1.406       .  A
C2969      C2987   1.451       .  S
C2970      C2975   1.492       .  S
C2971      C2972   1.409       .  A
C2971      C2976   1.451       .  S
C2972      C2973   1.411       .  A
C2972      C2988   1.451   1_455  S
C2974      C2977   1.452       .  S
C2975      C2978   1.411       .  A
C2975      C2982   1.407       .  A
C2976      N2993   1.157       .  T
C2977      N2995   1.157       .  T
C2978      C2979   1.410       .  A
C2979      C2980   1.415       .  A
C2979      C2985   1.450       .  S
C2980      C2981   1.421       .  A
C2981      C2982   1.407       .  A
C2981      C2984   1.453       .  S
C2982      C2986   1.452       .  S
C2983      N2990   1.157       .  T
C2984      N2991   1.157       .  T
C2986      N2992   1.157       .  T
C2987      N2996   1.157       .  T
C2988      N2994   1.157       .  T
C2997      C2998   1.411       .  A
C2997      C3002   1.416       .  A
C2997      C3015   1.451       .  S
C2998      C3003   1.512       .  S
C2999      C3000   1.420       .  A
C2999      C3004   1.450       .  S
C3000      C3001   1.418       .  A
C3000      C3016   1.450       .  S
C3002      C3005   1.451       .  S
C3003      C3006   1.414       .  A
C3003      C3010   1.414       .  A
C3004      N3021   1.157       .  T
C3005      N3023   1.157       .  T
C3006      C3007   1.416       .  A
C3006      C3011   1.450       .  S
C3007      C3008   1.414       .  A
C3007      C3013   1.451       .  S
C3008      C3009   1.415       .  A
C3009      C3010   1.418       .  A
C3009      C3012   1.451       .  S
C3010      C3014   1.450       .  S
C3011      N3018   1.157       .  T
C3012      N3019   1.157       .  T
C3013      N3017   1.157       .  T
C3014      N3020   1.157       .  T
C3015      N3024   1.157       .  T
C3016      N3022   1.158       .  T
C3025      C3026   1.409       .  A
C3025      C3030   1.413       .  A
C3025      C3043   1.451       .  S
C3026      C3031   1.505       .  S
C3027      C3028   1.417   1_455  A
C3027      C3032   1.450   1_455  S
C3028      C3044   1.450       .  S
C3029      C3030   1.422       .  A
C3030      C3033   1.452       .  S
C3031      C3034   1.411       .  A
C3031      C3038   1.412       .  A
C3032      N3049   1.157       .  T
C3033      N3051   1.157       .  T
C3034      C3035   1.414       .  A
C3035      C3036   1.416       .  A
C3035      C3041   1.451       .  S
C3036      C3037   1.416       .  A
C3037      C3038   1.415       .  A
C3037      C3040   1.451       .  S
C3038      C3042   1.450       .  S
C3039      N3046   1.157       .  T
C3040      N3047   1.157       .  T
C3041      N3045   1.157       .  T
C3042      N3048   1.157       .  T
C3043      N3052   1.157       .  T
C3044      N3050   1.157       .  T
C3053      C3054   1.414       .  A
C3053      C3058   1.411       .  A
C3053      C3071   1.450       .  S
C3054      C3059   1.495       .  S
C3054      C3055   1.412       .  A
C3055      C3056   1.406       .  A
C3055      C3060   1.452       .  S
C3056      C3057   1.411       .  A
C3057      C3058   1.411       .  A
C3058      C3061   1.451       .  S
C3059      C3062   1.408       .  A
C3059      C3066   1.414       .  A
C3060      N3077   1.157       .  T
C3061      N3079   1.157       .  T
C3062      C3063   1.409       .  A
C3062      C3067   1.451       .  S
C3063      C3064   1.420       .  A
C3063      C3069   1.452       .  S
C3064      C3065   1.413       .  A
C3065      C3066   1.409       .  A
C3067      N3074   1.157       .  T
C3068      N3075   1.157       .  T
C3069      N3073   1.158       .  T
C3070      N3076   1.157   1_455  T
C3071      N3080   1.157       .  T
C3072      N3078   1.157       .  T
C3081      C3082   1.406       .  A
C3081      C3086   1.410       .  A
C3081      C3099   1.452       .  S
C3082      C3087   1.494       .  S
C3082      C3083   1.409       .  A
C3083      C3084   1.412       .  A
C3083      C3088   1.451   1_565  S
C3084      C3085   1.420       .  A
C3084      C3100   1.450       .  S
C3085      C3086   1.426       .  A
C3086      C3089   1.452       .  S
C3087      C3090   1.411   1_556  A
C3087      C3094   1.410   1_565  A
C3088      N3105   1.157       .  T
C3089      N3107   1.157       .  T
C3090      C3091   1.410   1_565  A
C3090      C3095   1.450       .  S
C3091      C3092   1.412       .  A
C3091      C3097   1.451       .  S
C3092      C3093   1.416   1_554  A
C3093      C3094   1.410       .  A
C3093      C3096   1.451       .  S
C3094      C3098   1.451   1_545  S
C3095      N3102   1.157       .  T
C3096      N3103   1.157       .  T
C3097      N3101   1.157       .  T
C3098      N3104   1.157       .  T
C3099      N3108   1.158       .  T
C3100      N3106   1.158       .  T
C3109      C3110   1.407       .  A
C3109      C3114   1.404       .  A
C3109      C3127   1.451       .  S
C3110      C3115   1.485       .  S
C3110      C3111   1.411   1_554  A
C3111      C3112   1.408       .  A
C3111      C3116   1.450       .  S
C3112      C3113   1.409   1_556  A
C3112      C3128   1.451       .  S
C3113      C3114   1.412       .  A
C3114      C3117   1.452       .  S
C3115      C3118   1.412   1_554  A
C3115      C3122   1.406       .  A
C3116      N3133   1.157       .  T
C3117      N3135   1.157       .  T
C3118      C3119   1.407       .  A
C3118      C3123   1.451       .  S
C3119      C3120   1.411   1_556  A
C3119      C3125   1.451       .  S
C3120      C3121   1.416       .  A
C3121      C3122   1.405       .  A
C3121      C3124   1.452       .  S
C3122      C3126   1.451       .  S
C3123      N3130   1.157       .  T
C3125      N3129   1.157       .  T
C3126      N3132   1.157       .  T
C3127      N3136   1.157       .  T
C3128      N3134   1.157       .  T
C3137      C3138   1.410       .  A
C3137      C3142   1.409       .  A
C3137      C3155   1.450       .  S
C3138      C3143   1.492       .  S
C3138      C3139   1.408       .  A
C3139      C3140   1.410       .  A
C3139      C3144   1.451       .  S
C3140      C3141   1.418       .  A
C3140      C3156   1.451       .  S
C3141      C3142   1.414       .  A
C3142      C3145   1.452       .  S
C3143      C3146   1.409       .  A
C3143      C3150   1.410       .  A
C3144      N3161   1.157       .  T
C3145      N3163   1.157       .  T
C3146      C3147   1.411       .  A
C3146      C3151   1.450       .  S
C3147      C3148   1.416       .  A
C3147      C3153   1.451       .  S
C3148      C3149   1.415       .  A
C3149      C3150   1.408       .  A
C3149      C3152   1.452       .  S
C3150      C3154   1.452       .  S
C3151      N3158   1.157       .  T
C3152      N3159   1.157       .  T
C3153      N3157   1.158       .  T
C3154      N3160   1.157       .  T
C3155      N3164   1.157       .  T
C3156      N3162   1.158       .  T
C3165      C3166   1.412       .  A
C3165      C3170   1.419       .  A
C3165      C3183   1.450       .  S
C3166      C3171   1.507       .  S
C3166      C3167   1.408       .  A
C3167      C3168   1.413       .  A
C3167      C3172   1.451       .  S
C3168      C3169   1.424       .  A
C3168      C3184   1.452       .  S
C3169      C3170   1.419       .  A
C3170      C3173   1.450       .  S
C3171      C3174   1.412       .  A
C3171      C3178   1.413       .  A
C3172      N3189   1.157       .  T
C3173      N3191   1.157       .  T
C3174      C3175   1.415       .  A
C3174      C3179   1.450       .  S
C3175      C3176   1.414       .  A
C3175      C3181   1.450       .  S
C3176      C3177   1.415       .  A
C3177      C3178   1.415       .  A
C3177      C3180   1.451       .  S
C3178      C3182   1.450       .  S
C3179      N3186   1.157       .  T
C3181      N3185   1.157       .  T
C3182      N3188   1.157       .  T
C3183      N3192   1.157       .  T
C3184      N3190   1.157       .  T
C3193      C3194   1.413       .  A
C3193      C3198   1.420       .  A
C3193      C3211   1.450       .  S
C3194      C3199   1.511       .  S
C3194      C3195   1.409       .  A
C3195      C3196   1.415       .  A
C3195      C3200   1.451       .  S
C3196      C3197   1.422       .  A
C3196      C3212   1.451       .  S
C3197      C3198   1.420       .  A
C3199      C3202   1.412       .  A
C3199      C3206   1.412       .  A
C3200      N3217   1.157       .  T
C3201      N3219   1.158       .  T
C3202      C3203   1.416       .  A
C3202      C3207   1.450       .  S
C3203      C3204   1.417       .  A
C3203      C3209   1.450       .  S
C3204      C3205   1.420       .  A
C3205      C3206   1.418       .  A
C3205      C3208   1.451       .  S
C3206      C3210   1.450       .  S
C3207      N3214   1.157       .  T
C3208      N3215   1.157       .  T
C3209      N3213   1.157       .  T
C3210      N3216   1.157       .  T
C3211      N3220   1.157       .  T
C3212      N3218   1.157       .  T
C3221      C3222   1.407       .  A
C3221      C3226   1.412       .  A
C3221      C3239   1.451       .  S
C3222      C3227   1.487       .  S
C3222      C3223   1.402       .  A
C3223      C3224   1.406       .  A
C3223      C3228   1.453       .  S
C3224      C3225   1.429       .  A
C3224      C3240   1.453   1_655  S
C3225      C3226   1.422       .  A
C3226      C3229   1.450       .  S
C3227      C3230   1.410       .  A
C3227      C3234   1.410       .  A
C3228      N3245   1.157   1_655  T
C3229      N3247   1.158       .  T
C3230      C3231   1.410       .  A
C3230      C3235   1.449       .  S
C3231      C3232   1.412       .  A
C3231      C3237   1.450       .  S
C3232      C3233   1.411       .  A
C3233      C3234   1.404       .  A
C3233      C3236   1.453       .  S
C3234      C3238   1.452       .  S
C3235      N3242   1.157       .  T
C3236      N3243   1.158       .  T
C3237      N3241   1.157       .  T
C3238      N3244   1.157       .  T
C3239      N3248   1.157       .  T
C3240      N3246   1.158       .  T
C3249      C3250   1.413       .  A
C3249      C3254   1.417       .  A
C3249      C3267   1.450       .  S
C3250      C3255   1.505       .  S
C3250      C3251   1.412       .  A
C3251      C3252   1.412       .  A
C3251      C3256   1.451       .  S
C3252      C3253   1.415       .  A
C3252      C3268   1.451       .  S
C3253      C3254   1.417       .  A
C3254      C3257   1.450       .  S
C3255      C3258   1.409       .  A
C3255      C3262   1.413       .  A
C3256      N3273   1.157       .  T
C3257      N3275   1.157       .  T
C3258      C3259   1.413       .  A
C3258      C3263   1.451       .  S
C3259      C3260   1.420       .  A
C3259      C3265   1.452       .  S
C3260      C3261   1.414       .  A
C3261      C3262   1.417       .  A
C3261      C3264   1.448       .  S
C3262      C3266   1.450       .  S
C3263      N3270   1.157       .  T
C3264      N3271   1.157       .  T
C3265      N3269   1.158       .  T
C3266      N3272   1.157       .  T
C3267      N3276   1.157       .  T
C3268      N3274   1.157       .  T
C3277      C3278   1.410       .  A
C3277      C3282   1.411       .  A
C3277      C3295   1.451       .  S
C3278      C3283   1.504       .  S
C3278      C3279   1.414       .  A
C3279      C3280   1.416       .  A
C3279      C3284   1.450       .  S
C3280      C3281   1.412       .  A
C3280      C3296   1.450       .  S
C3281      C3282   1.418       .  A
C3282      C3285   1.452       .  S
C3283      C3286   1.412       .  A
C3283      C3290   1.413       .  A
C3284      N3301   1.157       .  T
C3285      N3303   1.157       .  T
C3286      C3287   1.414       .  A
C3286      C3291   1.450       .  S
C3287      C3288   1.414       .  A
C3287      C3293   1.451       .  S
C3288      C3289   1.412       .  A
C3289      C3290   1.413       .  A
C3289      C3292   1.448       .  S
C3290      C3294   1.451       .  S
C3291      N3298   1.157       .  T
C3292      N3299   1.156       .  T
C3293      N3297   1.157       .  T
C3294      N3300   1.157       .  T
C3295      N3304   1.157       .  T
C3296      N3302   1.157       .  T
C3305      C3306   1.409       .  A
C3305      C3310   1.408       .  A
C3305      C3323   1.451       .  S
C3306      C3311   1.492       .  S
C3306      C3307   1.410       .  A
C3307      C3308   1.412       .  A
C3307      C3312   1.450       .  S
C3308      C3309   1.414       .  A
C3308      C3324   1.450       .  S
C3309      C3310   1.415       .  A
C3310      C3313   1.452       .  S
C3311      C3314   1.405       .  A
C3311      C3318   1.412       .  A
C3312      N3329   1.157       .  T
C3313      N3331   1.157       .  T
C3314      C3315   1.407       .  A
C3314      C3319   1.452       .  S
C3315      C3316   1.421       .  A
C3315      C3321   1.453       .  S
C3316      C3317   1.413       .  A
C3317      C3318   1.413       .  A
C3318      C3322   1.450       .  S
C3319      N3326   1.157       .  T
C3320      N3327   1.157   1_455  T
C3321      N3325   1.158       .  T
C3322      N3328   1.157       .  T
C3323      N3332   1.157       .  T
C3324      N3330   1.157       .  T
C3333      C3334   1.407       .  A
C3333      C3338   1.403       .  A
C3333      C3351   1.452       .  S
C3334      C3339   1.485       .  S
C3334      C3335   1.411       .  A
C3335      C3336   1.409       .  A
C3335      C3340   1.450       .  S
C3336      C3337   1.410       .  A
C3336      C3352   1.451       .  S
C3337      C3338   1.414       .  A
C3338      C3341   1.452       .  S
C3339      C3342   1.405       .  A
C3339      C3346   1.413       .  A
C3340      N3357   1.157       .  T
C3341      N3359   1.157       .  T
C3342      C3343   1.405       .  A
C3342      C3347   1.451       .  S
C3343      C3344   1.417       .  A
C3343      C3349   1.452       .  S
C3344      C3345   1.409       .  A
C3345      C3346   1.408       .  A
C3345      C3348   1.451       .  S
C3346      C3350   1.451       .  S
C3347      N3354   1.157       .  T
C3348      N3355   1.157       .  T
C3349      N3353   1.157       .  T
C3350      N3356   1.157       .  T
C3351      N3360   1.157       .  T
C3352      N3358   1.157       .  T
C3361      C3362   1.415       .  A
C3361      C3366   1.416       .  A
C3361      C3379   1.450       .  S
C3362      C3367   1.506       .  S
C3362      C3363   1.411       .  A
C3363      C3364   1.412       .  A
C3363      C3368   1.451       .  S
C3364      C3365   1.417       .  A
C3364      C3380   1.452       .  S
C3365      C3366   1.413       .  A
C3366      C3369   1.449       .  S
C3367      C3370   1.416       .  A
C3367      C3374   1.412       .  A
C3368      N3385   1.157       .  T
C3369      N3387   1.157       .  T
C3370      C3371   1.416       .  A
C3370      C3375   1.450       .  S
C3371      C3372   1.412       .  A
C3371      C3377   1.450       .  S
C3372      C3373   1.416       .  A
C3373      C3374   1.412       .  A
C3373      C3376   1.452       .  S
C3374      C3378   1.451       .  S
C3375      N3382   1.157       .  T
C3376      N3383   1.157       .  T
C3377      N3381   1.157       .  T
C3378      N3384   1.157       .  T
C3379      N3388   1.157       .  T
C3380      N3386   1.157       .  T
C3389      C3390   1.410       .  A
C3389      C3394   1.412       .  A
C3389      C3407   1.451       .  S
C3390      C3395   1.493       .  S
C3390      C3391   1.405       .  A
C3391      C3392   1.407       .  A
C3391      C3396   1.453       .  S
C3392      C3393   1.428       .  A
C3392      C3408   1.453       .  S
C3393      C3394   1.419       .  A
C3394      C3397   1.450       .  S
C3395      C3398   1.411   1_554  A
C3395      C3402   1.410       .  A
C3396      N3413   1.157       .  T
C3397      N3415   1.158       .  T
C3398      C3399   1.410       .  A
C3398      C3403   1.450       .  S
C3399      C3400   1.412       .  A
C3399      C3405   1.451       .  S
C3400      C3401   1.416   1_556  A
C3401      C3402   1.407       .  A
C3402      C3406   1.452       .  S
C3403      N3410   1.157       .  T
C3404      N3411   1.158   1_455  T
C3405      N3409   1.157       .  T
C3406      N3412   1.157       .  T
C3407      N3416   1.157       .  T
C3408      N3414   1.157       .  T
C3417      C3418   1.408       .  A
C3417      C3422   1.414       .  A
C3417      C3435   1.451       .  S
C3418      C3423   1.507       .  S
C3418      C3419   1.411       .  A
C3419      C3420   1.418       .  A
C3419      C3424   1.450       .  S
C3420      C3421   1.422       .  A
C3420      C3436   1.450       .  S
C3421      C3422   1.424       .  A
C3422      C3425   1.451       .  S
C3423      C3426   1.407       .  A
C3423      C3430   1.411       .  A
C3424      N3441   1.157       .  T
C3425      N3443   1.157       .  T
C3426      C3427   1.414       .  A
C3426      C3431   1.452       .  S
C3427      C3428   1.428       .  A
C3427      C3433   1.451       .  S
C3428      C3429   1.423       .  A
C3429      C3430   1.418       .  A
C3429      C3432   1.450       .  S
C3430      C3434   1.450       .  S
C3431      N3438   1.157       .  T
C3432      N3439   1.157       .  T
C3433      N3437   1.158       .  T
C3434      N3440   1.157       .  T
C3435      N3444   1.157       .  T
C3436      N3442   1.158       .  T
C3445      C3446   1.412       .  A
C3445      C3450   1.417       .  A
C3445      C3463   1.450       .  S
C3446      C3451   1.507       .  S
C3446      C3447   1.409       .  A
C3447      C3448   1.414       .  A
C3447      C3452   1.451       .  S
C3448      C3449   1.421       .  A
C3448      C3464   1.452       .  S
C3449      C3450   1.417       .  A
C3450      C3453   1.448       .  S
C3451      C3454   1.412       .  A
C3451      C3458   1.413       .  A
C3452      N3469   1.157       .  T
C3453      N3471   1.157       .  T
C3454      C3455   1.414       .  A
C3454      C3459   1.450       .  S
C3455      C3456   1.416       .  A
C3455      C3461   1.452       .  S
C3456      C3457   1.415       .  A
C3457      C3458   1.416       .  A
C3457      C3460   1.450       .  S
C3458      C3462   1.450       .  S
C3459      N3466   1.157       .  T
C3460      N3467   1.157       .  T
C3461      N3465   1.157       .  T
C3462      N3468   1.157       .  T
C3463      N3472   1.157   1_655  T
C3464      N3470   1.157       .  T
C3473      C3474   1.413       .  A
C3473      C3478   1.419       .  A
C3473      C3491   1.450       .  S
C3474      C3479   1.511       .  S
C3474      C3475   1.411       .  A
C3475      C3476   1.415       .  A
C3475      C3480   1.451       .  S
C3476      C3477   1.420       .  A
C3476      C3492   1.450       .  S
C3477      C3478   1.419       .  A
C3478      C3481   1.450       .  S
C3479      C3482   1.410       .  A
C3479      C3486   1.407       .  A
C3480      N3497   1.157       .  T
C3481      N3499   1.157       .  T
C3482      C3483   1.421       .  A
C3482      C3487   1.451       .  S
C3483      C3484   1.426       .  A
C3483      C3489   1.450       .  S
C3484      C3485   1.432       .  A
C3485      C3486   1.416       .  A
C3485      C3488   1.452       .  S
C3486      C3490   1.452       .  S
C3487      N3494   1.157       .  T
C3488      N3495   1.157       .  T
C3489      N3493   1.158       .  T
C3490      N3496   1.157       .  T
C3491      N3500   1.157       .  T
C3492      N3498   1.157       .  T
C3501      C3502   1.413   1_554  A
C3501      C3506   1.408       .  A
C3501      C3519   1.451       .  S
C3502      C3507   1.488       .  S
C3502      C3503   1.408       .  A
C3503      C3504   1.405       .  A
C3503      C3508   1.451       .  S
C3504      C3505   1.414       .  A
C3504      C3520   1.452       .  S
C3505      C3506   1.410   1_556  A
C3506      C3509   1.451       .  S
C3507      C3510   1.413   1_556  A
C3507      C3514   1.406       .  A
C3508      N3525   1.157       .  T
C3509      N3527   1.157       .  T
C3510      C3511   1.410       .  A
C3510      C3515   1.450       .  S
C3511      C3512   1.411       .  A
C3511      C3517   1.450       .  S
C3512      C3513   1.418   1_554  A
C3513      C3514   1.404       .  A
C3513      C3516   1.453       .  S
C3514      C3518   1.452       .  S
C3515      N3522   1.157       .  T
C3516      N3523   1.157       .  T
C3517      N3521   1.157       .  T
C3518      N3524   1.157       .  T
C3519      N3528   1.157       .  T
C3520      N3526   1.157       .  T
C3529      C3530   1.410       .  A
C3529      C3534   1.411       .  A
C3529      C3547   1.452       .  S
C3530      C3535   1.500       .  S
C3530      C3531   1.410       .  A
C3531      C3532   1.415       .  A
C3531      C3536   1.450       .  S
C3532      C3533   1.418       .  A
C3532      C3548   1.451       .  S
C3533      C3534   1.414       .  A
C3534      C3537   1.447       .  S
C3535      C3538   1.412       .  A
C3535      C3542   1.411       .  A
C3536      N3553   1.157   1_655  T
C3537      N3555   1.156       .  T
C3538      C3539   1.412       .  A
C3538      C3543   1.450       .  S
C3539      C3540   1.413       .  A
C3539      C3545   1.451       .  S
C3540      C3541   1.415       .  A
C3541      C3542   1.413       .  A
C3541      C3544   1.451       .  S
C3542      C3546   1.450       .  S
C3543      N3550   1.157       .  T
C3544      N3551   1.157       .  T
C3545      N3549   1.157       .  T
C3547      N3556   1.157       .  T
C3548      N3554   1.157   1_655  T
C3557      C3558   1.412       .  A
C3557      C3562   1.414       .  A
C3557      C3575   1.450       .  S
C3558      C3563   1.504       .  S
C3558      C3559   1.413       .  A
C3559      C3560   1.413       .  A
C3559      C3564   1.451       .  S
C3560      C3561   1.415       .  A
C3560      C3576   1.451       .  S
C3561      C3562   1.416       .  A
C3562      C3565   1.451       .  S
C3563      C3566   1.411       .  A
C3563      C3570   1.414       .  A
C3564      N3581   1.157       .  T
C3565      N3583   1.157       .  T
C3566      C3567   1.412       .  A
C3566      C3571   1.451       .  S
C3567      C3568   1.415       .  A
C3567      C3573   1.451       .  S
C3568      C3569   1.413       .  A
C3569      C3570   1.415       .  A
C3569      C3572   1.450       .  S
C3570      C3574   1.450       .  S
C3571      N3578   1.157       .  T
C3572      N3579   1.157       .  T
C3573      N3577   1.157       .  T
C3574      N3580   1.157       .  T
C3575      N3584   1.157       .  T
C3576      N3582   1.157       .  T
C3585      C3586   1.411       .  A
C3585      C3590   1.408       .  A
C3585      C3603   1.451       .  S
C3586      C3591   1.494   1_545  S
C3586      C3587   1.410       .  A
C3587      C3588   1.411       .  A
C3587      C3592   1.450   1_545  S
C3588      C3589   1.415       .  A
C3588      C3604   1.451       .  S
C3589      C3590   1.412       .  A
C3590      C3593   1.452       .  S
C3591      C3594   1.406       .  A
C3591      C3598   1.411       .  A
C3592      N3609   1.157       .  T
C3593      N3611   1.157       .  T
C3594      C3595   1.407       .  A
C3594      C3599   1.453       .  S
C3595      C3596   1.423       .  A
C3595      C3601   1.452       .  S
C3596      C3597   1.415       .  A
C3597      C3598   1.414       .  A
C3597      C3600   1.450       .  S
C3598      C3602   1.450   1_565  S
C3599      N3606   1.157       .  T
C3601      N3605   1.158       .  T
C3602      N3608   1.157       .  T
C3603      N3612   1.157   1_545  T
C3604      N3610   1.157       .  T
C3613      C3614   1.413       .  A
C3613      C3618   1.410       .  A
C3613      C3631   1.451       .  S
C3614      C3619   1.495       .  S
C3614      C3615   1.413       .  A
C3615      C3616   1.407       .  A
C3615      C3620   1.451       .  S
C3616      C3617   1.409       .  A
C3616      C3632   1.451       .  S
C3617      C3618   1.411       .  A
C3618      C3621   1.451       .  S
C3619      C3622   1.410       .  A
C3619      C3626   1.414       .  A
C3620      N3637   1.157       .  T
C3621      N3639   1.158       .  T
C3622      C3623   1.408       .  A
C3622      C3627   1.451       .  S
C3623      C3624   1.416       .  A
C3623      C3629   1.452       .  S
C3624      C3625   1.413       .  A
C3625      C3626   1.410       .  A
C3625      C3628   1.451       .  S
C3626      C3630   1.452       .  S
C3627      N3634   1.157       .  T
C3628      N3635   1.157       .  T
C3629      N3633   1.157       .  T
C3630      N3636   1.157       .  T
C3631      N3640   1.157       .  T
C3632      N3638   1.157       .  T
C3641      C3642   1.414       .  A
C3641      C3646   1.413       .  A
C3641      C3659   1.451       .  S
C3642      C3647   1.505       .  S
C3642      C3643   1.413       .  A
C3643      C3644   1.414       .  A
C3643      C3648   1.450       .  S
C3644      C3645   1.416       .  A
C3644      C3660   1.451       .  S
C3645      C3646   1.413       .  A
C3646      C3649   1.451       .  S
C3647      C3650   1.415       .  A
C3647      C3654   1.412       .  A
C3648      N3665   1.157       .  T
C3649      N3667   1.157       .  T
C3650      C3651   1.415       .  A
C3650      C3655   1.450       .  S
C3651      C3652   1.413       .  A
C3651      C3657   1.450       .  S
C3652      C3653   1.416       .  A
C3653      C3654   1.411       .  A
C3654      C3658   1.451       .  S
C3655      N3662   1.157       .  T
C3656      N3663   1.157       .  T
C3657      N3661   1.157       .  T
C3659      N3668   1.157       .  T
C3660      N3666   1.157       .  T
C3669      C3670   1.413       .  A
C3669      C3674   1.417       .  A
C3669      C3687   1.450       .  S
C3670      C3675   1.513       .  S
C3670      C3671   1.414       .  A
C3671      C3672   1.417       .  A
C3671      C3676   1.450       .  S
C3672      C3673   1.417       .  A
C3672      C3688   1.451       .  S
C3673      C3674   1.417       .  A
C3674      C3677   1.451       .  S
C3675      C3678   1.410       .  A
C3675      C3682   1.410       .  A
C3676      N3693   1.157       .  T
C3677      N3695   1.157       .  T
C3678      C3679   1.420       .  A
C3678      C3683   1.451       .  S
C3679      C3680   1.428       .  A
C3679      C3685   1.451       .  S
C3680      C3681   1.427       .  A
C3681      C3682   1.417       .  A
C3681      C3684   1.451       .  S
C3682      C3686   1.452       .  S
C3683      N3690   1.157       .  T
C3684      N3691   1.158       .  T
C3685      N3689   1.157       .  T
C3686      N3692   1.157       .  T
C3687      N3696   1.157       .  T
C3688      N3694   1.157       .  T
C3697      C3698   1.414       .  A
C3697      C3702   1.413       .  A
C3697      C3715   1.450       .  S
C3698      C3703   1.504       .  S
C3698      C3699   1.413       .  A
C3699      C3700   1.411       .  A
C3699      C3704   1.451       .  S
C3700      C3701   1.415       .  A
C3700      C3716   1.452       .  S
C3701      C3702   1.413       .  A
C3702      C3705   1.451       .  S
C3703      C3706   1.411       .  A
C3703      C3710   1.414       .  A
C3704      N3721   1.157       .  T
C3705      N3723   1.157       .  T
C3706      C3707   1.410       .  A
C3706      C3711   1.452       .  S
C3707      C3708   1.418       .  A
C3707      C3713   1.452       .  S
C3708      C3709   1.415       .  A
C3709      C3710   1.414       .  A
C3709      C3712   1.451       .  S
C3710      C3714   1.451       .  S
C3711      N3718   1.157       .  T
C3712      N3719   1.157       .  T
C3713      N3717   1.158       .  T
C3714      N3720   1.157       .  T
C3715      N3724   1.157       .  T
C3716      N3722   1.158       .  T
C3725      C3726   1.410       .  A
C3725      C3730   1.411       .  A
C3725      C3743   1.451       .  S
C3726      C3731   1.494       .  S
C3726      C3727   1.411       .  A
C3727      C3728   1.408       .  A
C3727      C3732   1.452       .  S
C3728      C3729   1.413       .  A
C3728      C3744   1.452       .  S
C3729      C3730   1.415       .  A
C3730      C3733   1.451       .  S
C3731      C3734   1.413       .  A
C3731      C3738   1.409       .  A
C3732      N3749   1.157       .  T
C3733      N3751   1.157       .  T
C3734      C3735   1.410       .  A
C3734      C3739   1.451       .  S
C3735      C3736   1.411       .  A
C3735      C3741   1.451       .  S
C3736      C3737   1.416       .  A
C3737      C3738   1.408       .  A
C3737      C3740   1.452       .  S
C3738      C3742   1.451       .  S
C3739      N3746   1.157       .  T
C3740      N3747   1.157       .  T
C3742      N3748   1.157       .  T
C3743      N3752   1.157       .  T
C3744      N3750   1.157       .  T
C3753      C3754   1.414       .  A
C3753      C3758   1.416       .  A
C3753      C3771   1.450       .  S
C3754      C3759   1.508       .  S
C3754      C3755   1.413       .  A
C3755      C3756   1.414       .  A
C3755      C3760   1.450       .  S
C3756      C3757   1.414       .  A
C3756      C3772   1.451       .  S
C3757      C3758   1.414       .  A
C3758      C3761   1.451       .  S
C3759      C3762   1.412       .  A
C3759      C3766   1.412       .  A
C3760      N3777   1.157       .  T
C3761      N3779   1.157       .  T
C3762      C3763   1.415       .  A
C3762      C3767   1.450       .  S
C3763      C3764   1.417       .  A
C3763      C3769   1.451       .  S
C3764      C3765   1.419       .  A
C3765      C3766   1.417       .  A
C3765      C3768   1.451       .  S
C3766      C3770   1.450       .  S
C3767      N3774   1.157       .  T
C3768      N3775   1.157       .  T
C3769      N3773   1.157       .  T
C3770      N3776   1.157       .  T
C3771      N3780   1.157       .  T
C3772      N3778   1.157       .  T
C3781      C3782   1.411       .  A
C3781      C3786   1.412       .  A
C3781      C3799   1.450       .  S
C3782      C3787   1.494       .  S
C3782      C3783   1.412       .  A
C3783      C3784   1.406       .  A
C3783      C3788   1.451       .  S
C3784      C3785   1.409       .  A
C3784      C3800   1.451       .  S
C3785      C3786   1.413       .  A
C3786      C3789   1.450       .  S
C3787      C3790   1.406       .  A
C3787      C3794   1.412       .  A
C3788      N3805   1.157       .  T
C3789      N3807   1.157       .  T
C3790      C3791   1.410       .  A
C3790      C3795   1.451       .  S
C3791      C3792   1.422       .  A
C3791      C3797   1.452       .  S
C3792      C3793   1.415       .  A
C3793      C3794   1.411       .  A
C3793      C3796   1.451       .  S
C3794      C3798   1.451       .  S
C3795      N3802   1.157       .  T
C3796      N3803   1.157       .  T
C3797      N3801   1.158       .  T
C3798      N3804   1.157       .  T
C3799      N3808   1.157       .  T
C3800      N3806   1.157       .  T
C3809      C3810   1.415       .  A
C3809      C3814   1.414       .  A
C3809      C3827   1.450       .  S
C3810      C3815   1.503       .  S
C3810      C3811   1.412       .  A
C3811      C3812   1.411       .  A
C3811      C3816   1.451       .  S
C3812      C3813   1.413       .  A
C3812      C3828   1.451       .  S
C3813      C3814   1.411       .  A
C3814      C3817   1.451       .  S
C3815      C3818   1.411       .  A
C3815      C3822   1.415       .  A
C3816      N3833   1.157       .  T
C3817      N3835   1.157       .  T
C3818      C3819   1.410       .  A
C3818      C3823   1.451       .  S
C3819      C3820   1.415       .  A
C3819      C3825   1.452       .  S
C3820      C3821   1.412       .  A
C3821      C3822   1.414       .  A
C3821      C3824   1.451       .  S
C3822      C3826   1.450       .  S
C3823      N3830   1.157       .  T
C3824      N3831   1.157       .  T
C3825      N3829   1.157       .  T
C3826      N3832   1.157       .  T
C3827      N3836   1.157       .  T
C3828      N3834   1.157       .  T
C3837      C3838   1.409       .  A
C3837      C3842   1.408       .  A
C3837      C3855   1.451       .  S
C3838      C3843   1.491       .  S
C3838      C3839   1.411       .  A
C3839      C3840   1.408       .  A
C3839      C3844   1.451       .  S
C3840      C3841   1.413       .  A
C3840      C3856   1.452       .  S
C3841      C3842   1.414       .  A
C3842      C3845   1.451       .  S
C3843      C3846   1.409       .  A
C3843      C3850   1.404       .  A
C3844      N3861   1.157   1_556  T
C3845      N3863   1.157       .  T
C3846      C3847   1.412       .  A
C3846      C3851   1.451       .  S
C3847      C3848   1.420       .  A
C3847      C3853   1.450       .  S
C3848      C3849   1.428       .  A
C3849      C3850   1.407       .  A
C3849      C3852   1.452       .  S
C3850      C3854   1.453       .  S
C3851      N3858   1.157       .  T
C3852      N3859   1.158       .  T
C3853      N3857   1.157       .  T
C3854      N3860   1.157       .  T
C3855      N3864   1.157       .  T
C3856      N3862   1.157   1_556  T
C3865      C3866   1.410       .  A
C3865      C3870   1.412       .  A
C3865      C3883   1.451       .  S
C3866      C3871   1.502       .  S
C3866      C3867   1.412       .  A
C3867      C3868   1.414       .  A
C3867      C3872   1.451       .  S
C3868      C3869   1.417       .  A
C3868      C3884   1.451       .  S
C3869      C3870   1.417       .  A
C3870      C3873   1.451       .  S
C3871      C3878   1.414       .  A
C3872      N3889   1.157       .  T
C3873      N3891   1.157       .  T
C3874      C3875   1.411       .  A
C3874      C3879   1.451       .  S
C3875      C3876   1.416       .  A
C3875      C3881   1.452       .  S
C3877      C3878   1.414       .  A
C3877      C3880   1.450       .  S
C3878      C3882   1.450       .  S
C3879      N3886   1.157       .  T
C3880      N3887   1.157       .  T
C3881      N3885   1.157       .  T
C3882      N3888   1.157       .  T
C3883      N3892   1.157       .  T
C3884      N3890   1.157       .  T
C3893      C3898   1.408       .  A
C3893      C3911   1.451       .  S
C3894      C3899   1.491   1_455  S
C3894      C3895   1.411       .  A
C3895      C3900   1.450   1_455  S
C3896      C3897   1.412       .  A
C3896      C3912   1.451       .  S
C3897      C3898   1.413   1_556  A
C3898      C3901   1.452       .  S
C3899      C3902   1.405       .  A
C3899      C3906   1.408       .  A
C3900      N3917   1.157       .  T
C3901      N3919   1.157       .  T
C3902      C3903   1.408       .  A
C3902      C3907   1.453   1_655  S
C3903      C3904   1.427       .  A
C3903      C3909   1.453       .  S
C3904      C3905   1.421       .  A
C3905      C3906   1.412       .  A
C3905      C3908   1.450       .  S
C3906      C3910   1.451       .  S
C3908      N3915   1.158       .  T
C3909      N3913   1.157       .  T
C3910      N3916   1.157       .  T
C3911      N3920   1.157       .  T
C3912      N3918   1.157       .  T
C3921      C3922   1.411       .  A
C3921      C3926   1.408       .  A
C3921      C3939   1.451       .  S
C3922      C3927   1.487       .  S
C3922      C3923   1.409       .  A
C3923      C3924   1.406       .  A
C3923      C3928   1.451   1_556  S
C3924      C3925   1.411       .  A
C3924      C3940   1.452   1_556  S
C3925      C3926   1.411       .  A
C3926      C3929   1.451       .  S
C3927      C3930   1.407       .  A
C3927      C3934   1.411       .  A
C3928      N3945   1.157       .  T
C3929      N3947   1.158       .  T
C3930      C3931   1.405       .  A
C3930      C3935   1.452       .  S
C3931      C3932   1.417       .  A
C3931      C3937   1.453       .  S
C3932      C3933   1.412       .  A
C3933      C3934   1.409       .  A
C3933      C3936   1.450       .  S
C3934      C3938   1.451       .  S
C3935      N3942   1.157   1_556  T
C3936      N3943   1.157       .  T
C3937      N3941   1.157       .  T
C3938      N3944   1.157       .  T
C3939      N3948   1.157       .  T
C3940      N3946   1.157       .  T
C3949      C3950   1.409       .  A
C3949      C3967   1.451       .  S
C3950      C3955   1.498       .  S
C3950      C3951   1.412       .  A
C3951      C3952   1.414       .  A
C3951      C3956   1.450       .  S
C3952      C3953   1.415       .  A
C3952      C3968   1.450       .  S
C3954      C3957   1.452       .  S
C3955      C3958   1.406       .  A
C3955      C3962   1.410       .  A
C3956      N3973   1.157       .  T
C3957      N3975   1.157       .  T
C3958      C3959   1.411       .  A
C3958      C3963   1.451       .  S
C3959      C3960   1.424       .  A
C3959      C3965   1.452       .  S
C3960      C3961   1.421       .  A
C3961      C3962   1.414       .  A
C3961      C3964   1.451       .  S
C3963      N3970   1.157       .  T
C3964      N3971   1.157       .  T
C3965      N3969   1.157       .  T
C3966      N3972   1.157       .  T
C3967      N3976   1.157       .  T
C3968      N3974   1.157       .  T
C3977      C3978   1.412       .  A
C3977      C3982   1.412       .  A
C3977      C3995   1.450       .  S
C3978      C3979   1.411       .  A
C3979      C3980   1.412       .  A
C3979      C3984   1.450       .  S
C3980      C3981   1.414       .  A
C3980      C3996   1.451       .  S
C3981      C3982   1.413       .  A
C3982      C3985   1.451       .  S
C3983      C3986   1.410       .  A
C3983      C3990   1.408       .  A
C3984      N4001   1.157       .  T
C3985      N4003   1.157       .  T
C3986      C3987   1.412       .  A
C3986      C3991   1.451       .  S
C3987      C3988   1.417       .  A
C3987      C3993   1.451       .  S
C3988      C3989   1.422       .  A
C3989      C3990   1.413       .  A
C3989      C3992   1.451       .  S
C3991      N3998   1.157       .  T
C3992      N3999   1.158       .  T
C3993      N3997   1.157       .  T
C3994      N4000   1.157       .  T
C3996      N4002   1.157       .  T
C4005      C4006   1.406       .  A
C4005      C4010   1.411       .  A
C4005      C4023   1.453       .  S
C4006      C4011   1.499       .  S
C4006      C4007   1.409       .  A
C4007      C4008   1.415       .  A
C4007      C4012   1.451       .  S
C4008      C4009   1.424       .  A
C4008      C4024   1.450       .  S
C4009      C4010   1.428       .  A
C4010      C4013   1.452       .  S
C4011      C4014   1.410       .  A
C4011      C4018   1.411       .  A
C4012      N4029   1.157       .  T
C4013      N4031   1.157       .  T
C4014      C4015   1.411       .  A
C4014      C4019   1.451       .  S
C4015      C4016   1.417       .  A
C4015      C4021   1.452       .  S
C4016      C4017   1.415       .  A
C4017      C4018   1.412       .  A
C4017      C4020   1.451       .  S
C4018      C4022   1.450       .  S
C4019      N4026   1.157       .  T
C4020      N4027   1.157       .  T
C4021      N4025   1.157       .  T
C4022      N4028   1.157       .  T
C4023      N4032   1.157       .  T
C4024      N4030   1.158       .  T
C4033      C4034   1.413       .  A
C4033      C4038   1.412       .  A
C4033      C4051   1.450       .  S
C4034      C4039   1.499       .  S
C4034      C4035   1.410       .  A
C4035      C4036   1.410       .  A
C4035      C4040   1.451       .  S
C4036      C4037   1.414       .  A
C4036      C4052   1.451       .  S
C4037      C4038   1.413       .  A
C4038      C4041   1.451       .  S
C4039      C4042   1.410       .  A
C4039      C4046   1.414       .  A
C4040      N4057   1.157       .  T
C4041      N4059   1.157       .  T
C4042      C4043   1.410       .  A
C4042      C4047   1.451       .  S
C4043      C4044   1.414       .  A
C4043      C4049   1.451       .  S
C4044      C4045   1.412       .  A
C4045      C4046   1.413       .  A
C4045      C4048   1.451       .  S
C4046      C4050   1.450       .  S
C4047      N4054   1.157       .  T
C4048      N4055   1.157       .  T
C4049      N4053   1.157       .  T
C4050      N4056   1.157       .  T
C4051      N4060   1.157       .  T
C4052      N4058   1.157       .  T
C4061      C4062   1.410       .  A
C4061      C4066   1.414       .  A
C4061      C4079   1.450       .  S
C4062      C4067   1.498       .  S
C4062      C4063   1.409       .  A
C4063      C4064   1.410       .  A
C4063      C4068   1.452       .  S
C4064      C4065   1.418       .  A
C4064      C4080   1.451       .  S
C4065      C4066   1.419       .  A
C4066      C4069   1.451       .  S
C4067      C4070   1.409       .  A
C4067      C4074   1.412       .  A
C4068      N4085   1.157       .  T
C4069      N4087   1.157       .  T
C4070      C4071   1.409       .  A
C4070      C4075   1.451       .  S
C4071      C4072   1.418       .  A
C4071      C4077   1.452       .  S
C4072      C4073   1.413       .  A
C4073      C4074   1.414       .  A
C4073      C4076   1.450       .  S
C4074      C4078   1.450       .  S
C4075      N4082   1.157       .  T
C4076      N4083   1.157       .  T
C4077      N4081   1.158       .  T
C4078      N4084   1.157       .  T
C4079      N4088   1.157       .  T
C4080      N4086   1.157       .  T
C4089      C4090   1.410       .  A
C4089      C4094   1.417       .  A
C4089      C4107   1.451       .  S
C4090      C4095   1.505       .  S
C4090      C4091   1.406       .  A
C4091      C4092   1.414       .  A
C4091      C4096   1.452       .  S
C4092      C4093   1.428       .  A
C4092      C4108   1.451       .  S
C4093      C4094   1.423       .  A
C4094      C4097   1.450       .  S
C4095      C4098   1.411       .  A
C4095      C4102   1.411       .  A
C4096      N4113   1.157       .  T
C4097      N4115   1.157       .  T
C4098      C4099   1.414       .  A
C4098      C4103   1.450       .  S
C4099      C4100   1.416       .  A
C4099      C4105   1.451       .  S
C4100      C4101   1.418       .  A
C4101      C4102   1.415       .  A
C4101      C4104   1.451       .  S
C4102      C4106   1.450       .  S
C4103      N4110   1.157       .  T
C4104      N4111   1.158       .  T
C4105      N4109   1.157       .  T
C4106      N4112   1.157       .  T
C4107      N4116   1.157       .  T
C4108      N4114   1.157       .  T
C4117      C4118   1.413       .  A
C4117      C4122   1.413       .  A
C4117      C4135   1.451       .  S
C4118      C4123   1.498       .  S
C4118      C4119   1.410       .  A
C4119      C4120   1.409       .  A
C4119      C4124   1.452       .  S
C4120      C4121   1.419       .  A
C4120      C4136   1.453       .  S
C4121      C4122   1.414       .  A
C4122      C4125   1.449       .  S
C4123      C4126   1.412       .  A
C4123      C4130   1.414       .  A
C4124      N4141   1.157       .  T
C4125      N4143   1.157       .  T
C4126      C4127   1.410       .  A
C4126      C4131   1.451       .  S
C4127      C4128   1.412       .  A
C4127      C4133   1.452       .  S
C4128      C4129   1.411       .  A
C4129      C4130   1.410       .  A
C4129      C4132   1.451       .  S
C4130      C4134   1.451       .  S
C4131      N4138   1.157       .  T
C4132      N4139   1.157       .  T
C4133      N4137   1.157       .  T
C4134      N4140   1.157       .  T
C4135      N4144   1.157       .  T
C4136      N4142   1.157       .  T
C4145      C4146   1.411       .  A
C4145      C4163   1.451       .  S
C4146      C4151   1.505       .  S
C4146      C4147   1.415       .  A
C4147      C4148   1.416       .  A
C4147      C4152   1.450       .  S
C4148      C4164   1.451       .  S
C4149      C4150   1.415   1_455  A
C4150      C4153   1.452       .  S
C4151      C4154   1.415       .  A
C4151      C4158   1.411       .  A
C4152      N4169   1.157       .  T
C4153      N4171   1.157       .  T
C4154      C4155   1.415       .  A
C4155      C4156   1.412       .  A
C4155      C4161   1.450       .  S
C4156      C4157   1.416       .  A
C4157      C4158   1.412       .  A
C4157      C4160   1.452       .  S
C4158      C4162   1.451       .  S
C4159      N4166   1.157       .  T
C4160      N4167   1.157       .  T
C4162      N4168   1.157       .  T
C4163      N4172   1.157       .  T
C4164      N4170   1.157       .  T
C4173      C4174   1.410       .  A
C4173      C4191   1.451   1_455  S
C4174      C4179   1.499   1_455  S
C4174      C4175   1.412       .  A
C4175      C4180   1.450       .  S
C4176      C4177   1.413       .  A
C4176      C4192   1.450       .  S
C4177      C4178   1.414       .  A
C4178      C4181   1.452       .  S
C4179      C4182   1.411       .  A
C4179      C4186   1.406       .  A
C4180      N4197   1.157       .  T
C4181      N4199   1.157       .  T
C4182      C4183   1.414       .  A
C4182      C4187   1.451       .  S
C4183      C4184   1.419       .  A
C4183      C4189   1.450       .  S
C4184      C4185   1.428       .  A
C4185      C4186   1.411       .  A
C4185      C4188   1.452       .  S
C4186      C4190   1.452   1_655  S
C4187      N4194   1.157       .  T
C4188      N4195   1.157       .  T
C4189      N4193   1.157       .  T
C4191      N4200   1.157       .  T
C4192      N4198   1.157       .  T
C4201      C4202   1.409       .  A
C4201      C4206   1.415       .  A
C4201      C4219   1.451       .  S
C4202      C4207   1.509       .  S
C4202      C4203   1.412       .  A
C4203      C4204   1.418       .  A
C4203      C4208   1.450       .  S
C4204      C4205   1.418       .  A
C4204      C4220   1.449       .  S
C4205      C4206   1.422       .  A
C4206      C4209   1.451       .  S
C4207      C4210   1.411       .  A
C4207      C4214   1.414       .  A
C4208      N4225   1.157       .  T
C4209      N4227   1.157       .  T
C4210      C4211   1.413       .  A
C4210      C4215   1.451       .  S
C4211      C4212   1.418       .  A
C4211      C4217   1.452       .  S
C4212      C4213   1.415       .  A
C4213      C4214   1.419       .  A
C4213      C4216   1.449       .  S
C4214      C4218   1.449       .  S
C4215      N4222   1.157       .  T
C4216      N4223   1.157       .  T
C4217      N4221   1.157       .  T
C4218      N4224   1.157       .  T
C4219      N4228   1.157       .  T
C4220      N4226   1.157       .  T
C4229      C4230   1.408       .  A
C4229      C4234   1.408       .  A
C4229      C4247   1.452       .  S
C4230      C4235   1.494   1_565  S
C4230      C4231   1.412       .  A
C4231      C4232   1.411       .  A
C4231      C4236   1.450   1_565  S
C4232      C4233   1.412       .  A
C4232      C4248   1.450       .  S
C4233      C4234   1.418       .  A
C4234      C4237   1.453       .  S
C4235      C4238   1.410       .  A
C4235      C4242   1.411       .  A
C4236      N4253   1.157       .  T
C4237      N4255   1.158       .  T
C4238      C4239   1.408       .  A
C4238      C4243   1.451       .  S
C4239      C4240   1.415       .  A
C4239      C4245   1.452       .  S
C4240      C4241   1.413       .  A
C4241      C4242   1.411       .  A
C4241      C4244   1.451       .  S
C4242      C4246   1.450   1_545  S
C4243      N4250   1.157       .  T
C4244      N4251   1.157       .  T
C4245      N4249   1.157       .  T
C4246      N4252   1.157       .  T
C4247      N4256   1.157       .  T
C4248      N4254   1.157       .  T
C4257      C4258   1.414       .  A
C4257      C4262   1.409       .  A
C4257      C4275   1.451       .  S
C4258      C4263   1.498       .  S
C4258      C4259   1.414       .  A
C4259      C4260   1.410       .  A
C4259      C4264   1.450       .  S
C4260      C4261   1.409       .  A
C4260      C4276   1.450       .  S
C4261      C4262   1.410       .  A
C4262      C4265   1.452       .  S
C4263      C4266   1.410       .  A
C4263      C4270   1.415       .  A
C4264      N4281   1.157       .  T
C4265      N4283   1.157       .  T
C4266      C4267   1.408       .  A
C4266      C4271   1.451       .  S
C4267      C4268   1.417       .  A
C4267      C4273   1.452       .  S
C4268      C4269   1.412       .  A
C4269      C4270   1.411       .  A
C4269      C4272   1.451       .  S
C4270      C4274   1.451       .  S
C4271      N4278   1.157       .  T
C4272      N4279   1.157       .  T
C4273      N4277   1.157       .  T
C4274      N4280   1.157       .  T
C4275      N4284   1.157       .  T
C4276      N4282   1.157       .  T
C4285      C4286   1.414       .  A
C4285      C4290   1.416       .  A
C4285      C4303   1.450       .  S
C4286      C4291   1.507       .  S
C4286      C4287   1.411       .  A
C4287      C4288   1.413       .  A
C4287      C4292   1.450       .  S
C4288      C4289   1.418       .  A
C4288      C4304   1.452       .  S
C4289      C4290   1.414       .  A
C4290      C4293   1.450       .  S
C4291      C4294   1.414       .  A
C4291      C4298   1.413       .  A
C4292      N4309   1.157       .  T
C4293      N4311   1.157       .  T
C4294      C4295   1.417       .  A
C4294      C4299   1.450       .  S
C4295      C4296   1.414       .  A
C4295      C4301   1.450       .  S
C4296      C4297   1.414       .  A
C4297      C4298   1.413       .  A
C4297      C4300   1.451       .  S
C4298      C4302   1.450       .  S
C4299      N4306   1.157       .  T
C4300      N4307   1.157       .  T
C4301      N4305   1.157       .  T
C4302      N4308   1.157       .  T
C4303      N4312   1.157       .  T
C4304      N4310   1.158       .  T
C4313      C4314   1.410       .  A
C4313      C4318   1.412       .  A
C4313      C4331   1.450       .  S
C4314      C4319   1.497       .  S
C4314      C4315   1.411       .  A
C4315      C4316   1.410       .  A
C4315      C4320   1.451       .  S
C4316      C4317   1.414       .  A
C4316      C4332   1.451       .  S
C4317      C4318   1.416       .  A
C4318      C4321   1.451       .  S
C4319      C4322   1.407       .  A
C4319      C4326   1.410       .  A
C4320      N4337   1.157       .  T
C4321      N4339   1.157       .  T
C4322      C4323   1.412       .  A
C4322      C4327   1.452       .  S
C4323      C4324   1.423       .  A
C4323      C4329   1.451       .  S
C4324      C4325   1.419       .  A
C4325      C4326   1.412       .  A
C4325      C4328   1.451       .  S
C4326      C4330   1.451       .  S
C4327      N4334   1.157       .  T
C4328      N4335   1.157       .  T
C4329      N4333   1.158       .  T
C4330      N4336   1.158       .  T
C4331      N4340   1.157       .  T
C4332      N4338   1.157       .  T
C4341      C4342   1.412       .  A
C4341      C4346   1.414       .  A
C4341      C4359   1.451       .  S
C4342      C4347   1.509       .  S
C4342      C4343   1.413       .  A
C4343      C4344   1.417       .  A
C4343      C4348   1.450       .  S
C4344      C4345   1.418       .  A
C4344      C4360   1.451       .  S
C4345      C4346   1.419       .  A
C4346      C4349   1.452       .  S
C4347      C4350   1.412       .  A
C4347      C4354   1.409       .  A
C4348      N4365   1.157       .  T
C4349      N4367   1.157       .  T
C4350      C4351   1.419       .  A
C4350      C4355   1.451       .  S
C4351      C4352   1.424       .  A
C4351      C4357   1.450       .  S
C4352      C4353   1.426       .  A
C4353      C4354   1.414       .  A
C4353      C4356   1.451       .  S
C4354      C4358   1.452       .  S
C4355      N4362   1.157       .  T
C4356      N4363   1.157       .  T
C4357      N4361   1.158       .  T
C4358      N4364   1.157       .  T
C4359      N4368   1.157       .  T
C4360      N4366   1.158       .  T
C4369      C4370   1.412       .  A
C4369      C4374   1.415       .  A
C4369      C4387   1.450       .  S
C4370      C4375   1.504       .  S
C4370      C4371   1.411       .  A
C4371      C4372   1.413       .  A
C4371      C4376   1.450       .  S
C4372      C4373   1.415       .  A
C4372      C4388   1.451       .  S
C4373      C4374   1.413       .  A
C4374      C4377   1.447       .  S
C4375      C4378   1.411       .  A
C4375      C4382   1.408       .  A
C4376      N4393   1.157       .  T
C4378      C4379   1.415       .  A
C4379      C4380   1.419       .  A
C4379      C4385   1.450       .  S
C4380      C4381   1.423       .  A
C4381      C4382   1.414       .  A
C4381      C4384   1.451       .  S
C4382      C4386   1.451       .  S
C4383      N4390   1.157   1_455  T
C4384      N4391   1.158       .  T
C4385      N4389   1.157       .  T
C4386      N4392   1.157       .  T
C4387      N4396   1.157       .  T
C4388      N4394   1.157       .  T
C4397      C4398   1.412   1_565  A
C4397      C4402   1.414       .  A
C4397      C4415   1.450   1_565  S
C4398      C4399   1.412   1_545  A
C4399      C4400   1.409       .  A
C4400      C4401   1.411       .  A
C4400      C4416   1.451       .  S
C4401      C4402   1.415       .  A
C4402      C4405   1.451       .  S
C4403      C4406   1.408       .  A
C4403      C4410   1.412       .  A
C4404      N4421   1.157   1_565  T
C4405      N4423   1.157       .  T
C4406      C4407   1.409       .  A
C4407      C4408   1.419       .  A
C4407      C4413   1.452       .  S
C4408      C4409   1.415       .  A
C4409      C4410   1.415       .  A
C4409      C4412   1.450       .  S
C4410      C4414   1.450   1_545  S
C4411      N4418   1.157       .  T
C4412      N4419   1.157       .  T
C4413      N4417   1.157       .  T
C4414      N4420   1.157       .  T
C4415      N4424   1.157       .  T
C4416      N4422   1.157       .  T
C4425      C4426   1.411       .  A
C4425      C4430   1.418       .  A
C4425      C4443   1.451       .  S
C4426      C4431   1.515       .  S
C4426      C4427   1.413       .  A
C4427      C4428   1.420       .  A
C4427      C4432   1.450       .  S
C4428      C4429   1.421       .  A
C4428      C4444   1.450       .  S
C4429      C4430   1.425       .  A
C4430      C4433   1.451       .  S
C4431      C4434   1.413       .  A
C4431      C4438   1.413       .  A
C4432      N4449   1.157       .  T
C4433      N4451   1.157       .  T
C4434      C4435   1.418       .  A
C4434      C4439   1.451       .  S
C4435      C4436   1.419       .  A
C4435      C4441   1.451       .  S
C4436      C4437   1.419       .  A
C4437      C4438   1.419       .  A
C4437      C4440   1.450       .  S
C4438      C4442   1.450       .  S
C4439      N4446   1.157       .  T
C4440      N4447   1.157       .  T
C4441      N4445   1.157       .  T
C4442      N4448   1.157       .  T
C4443      N4452   1.157       .  T
C4444      N4450   1.157       .  T
C4453      C4454   1.412       .  A
C4453      C4458   1.410       .  A
C4453      C4471   1.450       .  S
C4454      C4459   1.490       .  S
C4454      C4455   1.409       .  A
C4455      C4456   1.407       .  A
C4455      C4460   1.451       .  S
C4456      C4457   1.413       .  A
C4456      C4472   1.452       .  S
C4457      C4458   1.410       .  A
C4458      C4461   1.451       .  S
C4459      C4462   1.408       .  A
C4459      C4466   1.412       .  A
C4460      N4477   1.157       .  T
C4461      N4479   1.157       .  T
C4462      C4463   1.407       .  A
C4462      C4467   1.451       .  S
C4463      C4464   1.416       .  A
C4463      C4469   1.452       .  S
C4464      C4465   1.412       .  A
C4465      C4466   1.410       .  A
C4465      C4468   1.451       .  S
C4466      C4470   1.450       .  S
C4467      N4474   1.157       .  T
C4468      N4475   1.157       .  T
C4469      N4473   1.157       .  T
C4470      N4476   1.157       .  T
C4471      N4480   1.157       .  T
C4472      N4478   1.157       .  T
