geometry optimzed in LAMMPS
_audit_creation_date              2020-12-01 
_audit_creation_method            'lammps2cif' 
_symmetry_space_group_name_H-M    'P1' 
_symmetry_Int_Tables_number       1 
_symmetry_cell_setting            triclinic 
loop_ 
_symmetry_equiv_pos_as_xyz 
  x,y,z 
_cell_length_a                    53.0360226 
_cell_length_b                    26.47561510815124 
_cell_length_c                    28.728961203792934 
_cell_angle_alpha                 89.3866943449864 
_cell_angle_beta                  117.52060761376624 
_cell_angle_gamma                 90.22534954713569 
loop_ 
_atom_site_label 
_atom_site_type_symbol 
_atom_site_fract_x 
_atom_site_fract_y 
_atom_site_fract_z 
_atom_site_charge 
O1          O  0.07835416  0.34169456  0.27337432    -0.82200
C2          C  0.12139633  0.32152619  0.48737592     0.97200
O3          O  0.11846300  0.29639664  0.44851576    -0.71300
O4          O  0.09061178  0.26741916  0.35152385    -0.74900
Al5        Al  0.11970568  0.31943445  0.38798496     1.49000
C6          C  0.06374866  0.26726228  0.33464396     0.92400
O7          O  0.03972101  0.40028889  0.34822486    -0.81100
O8          O  0.08302242  0.46923553  0.37666962    -0.74700
Al9        Al  0.06269511  0.37168970  0.31693321     1.90100
O10         O  0.06978213  0.39691567  0.43188382    -0.73800
O11         O  0.13529881  0.43602007  0.42418729    -0.73600
O12         O  0.12195663  0.36934233  0.48549461    -0.79300
O13         O  0.15372583  0.36130113  0.42721048    -0.77500
O14         O  0.09489223  0.36839036  0.37674145    -1.13600
O15         O  0.12352396  0.33660839  0.32788241    -0.72800
C16         C  0.10360882  0.33126865  0.28236158     0.97900
C17         C  0.04491344  0.40301497  0.39607598     0.94300
Al18       Al  0.10206146  0.41421869  0.42550809     1.55600
O19         O  0.05077808  0.30845762  0.32767321    -0.77400
C20         C  0.15651605  0.40890759  0.43367744     0.98500
C21         C  0.07356995  0.47500170  0.32756643     0.93400
O22         O  0.07119650  0.43683588  0.29979324    -0.82700
O23         O  0.07283711  0.05767357  0.79501624    -0.82200
C24         C  0.12035465  0.15108313  0.99176233     0.97200
O25         O  0.12421454  0.10474781  0.98551718    -0.71300
O26         O  0.07456801  0.06583204  0.93266895    -0.74900
Al27       Al  0.10616153  0.06425522  0.92156234     1.49000
C28         C  0.04994734  0.05649981  0.89796085     0.92400
O29         O  0.04706709  0.16932730  0.84188979    -0.81100
O30         O  0.11936904  0.16538368  0.83087243    -0.74700
Al31       Al  0.06148290  0.11349879  0.82104239     1.90100
O32         O  0.08281492  0.21891402  0.85711592    -0.73800
O33         O  0.15258848  0.13643816  0.93058492    -0.73600
O34         O  0.11257156  0.18196698  0.95399377    -0.79300
O35         O  0.13973629  0.05710851  0.91569159    -0.77500
O36         O  0.09441690  0.11625240  0.87818296    -1.13600
O37         O  0.08878192  0.01281411  0.86680062    -0.72800
C38         C  0.07622002  0.01521983  0.81690597     0.97900
C39         C  0.05630863  0.21324884  0.84264243     0.94300
Al40       Al  0.11536652  0.17151024  0.89223488     1.55600
O41         O  0.04214117  0.06987240  0.85070181    -0.77400
C42         C  0.15907538  0.08980392  0.93266763     0.98500
C43         C  0.09834979  0.16720037  0.78573559     0.93400
O44         O  0.07359283  0.15505068  0.77851815    -0.82700
O45         O  0.43736571  0.55065060  0.68961707    -0.82200
C46         C  0.37713353  0.67685945  0.51371111     0.97200
O47         O  0.37413415  0.62921163  0.51303862    -0.71300
O48         O  0.42436193  0.59415901  0.55057339    -0.74900
Al49       Al  0.39551742  0.57965353  0.56744165     1.49000
C50         C  0.45017584  0.58557691  0.57806024     0.92400
O51         O  0.45503437  0.68044921  0.65992743    -0.81100
O52         O  0.38889464  0.65350448  0.68352739    -0.74700
Al53       Al  0.44404028  0.61577402  0.67159738     1.90100
O54         O  0.41789419  0.72180204  0.65367671    -0.73800
O55         O  0.35088202  0.63736581  0.58500053    -0.73600
O56         O  0.38387090  0.69977748  0.55579567    -0.79300
O57         O  0.36441334  0.56123955  0.57776717    -0.77500
O58         O  0.40878401  0.62281380  0.61986742    -1.13600
O59         O  0.41520306  0.52044698  0.61024693    -0.72800
C60         C  0.42987724  0.51342368  0.65941611     0.97900
C61         C  0.44356663  0.72127252  0.66215764     0.94300
Al62       Al  0.38701183  0.67389855  0.61944481     1.55600
O63         O  0.46056802  0.58853207  0.62768792    -0.77400
C64         C  0.34546058  0.59067310  0.57597092     0.98500
C65         C  0.41130084  0.64853044  0.72632172     0.93400
O66         O  0.43482478  0.64001432  0.72604124    -0.82700
O67         O  0.42787501  0.84252141  0.22095585    -0.82200
C68         C  0.38006187  0.82202364  0.00430289     0.97200
O69         O  0.38532737  0.79692197  0.04478004    -0.71300
O70         O  0.41532408  0.76431449  0.13900330    -0.74900
Al71       Al  0.38523013  0.81585807  0.10685601     1.49000
C72         C  0.44204812  0.76640483  0.15472606     0.92400
O73         O  0.46301778  0.89883221  0.14019071    -0.81100
O74         O  0.42038379  0.96867912  0.11364770    -0.74700
Al75       Al  0.44164580  0.87093651  0.17450828     1.90100
O76         O  0.43118969  0.89695518  0.05731793    -0.73800
O77         O  0.36773062  0.93388920  0.07020431    -0.73600
O78         O  0.37861951  0.86965211  0.00601965    -0.79300
O79         O  0.35060926  0.85849629  0.07212681    -0.77500
O80         O  0.40879876  0.86675181  0.11628811    -1.13600
O81         O  0.38298199  0.82669559  0.16937667    -0.72800
C82         C  0.40357305  0.82903079  0.21467340     0.97900
C83         C  0.45655099  0.90061495  0.09179817     0.94300
Al84       Al  0.40004444  0.91349970  0.06612007     1.55600
O85         O  0.45408040  0.80850428  0.16492566    -0.77400
C86         C  0.34740334  0.90639030  0.06575789     0.98500
C87         C  0.43124350  0.97349210  0.16307339     0.93400
O88         O  0.43290369  0.93510128  0.19040309    -0.82700
C89         C  0.40938009  0.65794279  0.77592094     0.00900
C90         C  0.43227993  0.67917494  0.82073310     0.03800
C91         C  0.42706984  0.70289317  0.85934700    -0.13100
C92         C  0.39913592  0.70608649  0.85330127     0.23100
C93         C  0.37706216  0.68028688  0.81181364    -0.12900
C94         C  0.38248984  0.65412421  0.77507014     0.04500
C95         C  0.39255008  0.73654115  0.88984804     0.26900
C96         C  0.38626949  0.71216786  0.92696498    -0.13600
C97         C  0.37719791  0.74036820  0.95771557     0.05000
C98         C  0.37828160  0.79410935  0.95747709    -0.09500
C99         C  0.38263919  0.81835926  0.91746755     0.05800
C100        C  0.38929748  0.78943204  0.88342332    -0.13900
Br101      Br  0.33875638  0.68344693  0.80324844    -0.06000
Br102      Br  0.47082236  0.67711746  0.83024301    -0.00300
Br103      Br  0.36045674  0.70409999  0.99549357     0.00100
Br104      Br  0.39391730  0.82195788  0.82740958    -0.04300
Br105      Br  0.35309264  0.61099539  0.72526271     0.00200
Br106      Br  0.45810609  0.73231130  0.91981477    -0.03600
Br107      Br  0.39040583  0.63970648  0.93616333    -0.04500
Br108      Br  0.37916423  0.89065734  0.90734696    -0.00500
C109        C  0.37501496  0.70530395  0.46627491     0.00900
C110        C  0.38892054  0.75293587  0.47200626     0.03800
C111        C  0.39291166  0.77354706  0.43042393    -0.12300
C112        C  0.38181979  0.74915670  0.38184000     0.23100
C113        C  0.36547519  0.70505993  0.37391897    -0.12900
C114        C  0.36198714  0.68317704  0.41567887     0.04500
C115        C  0.38750605  0.77024467  0.33923060     0.26900
C116        C  0.36876706  0.80578295  0.30306147    -0.13600
C117        C  0.37472470  0.82707586  0.26398485     0.05000
C118        C  0.39923161  0.81203031  0.25998902    -0.09500
C119        C  0.41781330  0.77585529  0.29606553     0.05800
C120        C  0.41227064  0.75602347  0.33616670    -0.13900
Br121      Br  0.34820109  0.67447165  0.30548614    -0.06000
Br122      Br  0.40265515  0.79253033  0.53532888    -0.00300
Br123      Br  0.34941143  0.87768582  0.21671215     0.00100
Br124      Br  0.43857607  0.70896939  0.38713994    -0.04300
Br125      Br  0.33802750  0.62416932  0.40139598     0.00200
Br126      Br  0.41452835  0.83506190  0.44001368    -0.03600
Br127      Br  0.33479968  0.82489269  0.30721375    -0.04500
Br128      Br  0.44951537  0.74935152  0.28819239    -0.00500
C129        C  0.18911179  0.07128523  0.95794219     0.00900
C130        C  0.20846471  0.08637063  0.93943825     0.03800
C131        C  0.23497534  0.06135321  0.95758344    -0.12300
C132        C  0.24242287  0.02150078  0.99475575     0.23100
C133        C  0.22395015  0.00875641  0.01573044    -0.12900
C134        C  0.19754852  0.03337713  0.99764640     0.04500
C135        C  0.26947524  0.99229851  0.01224560     0.26900
C136        C  0.26951463  0.94600718  0.98832726    -0.13600
C137        C  0.29443740  0.91612574  0.00751211     0.05000
C138        C  0.31972637  0.93245599  0.05082300    -0.09500
C139        C  0.31950145  0.97899017  0.07482956     0.05800
C140        C  0.29449683  0.00838389  0.05580983    -0.13900
Br141      Br  0.23496849  0.95661856  0.06922724    -0.06000
Br142      Br  0.19818707  0.13968543  0.88770188    -0.00300
Br143      Br  0.29418841  0.85467646  0.97183024     0.00100
Br144      Br  0.29426430  0.07090065  0.08961761    -0.04300
Br145      Br  0.17358975  0.01526501  0.02929899     0.00200
Br146      Br  0.26089243  0.08066172  0.93076009    -0.03600
Br147      Br  0.23522958  0.92413324  0.92851207    -0.04500
Br148      Br  0.35341066  0.00311652  0.13449447    -0.00500
C149        C  0.47723520  0.91172380  0.07247374     0.00900
C150        C  0.47275998  0.88866733  0.02526866     0.03800
C151        C  0.48137413  0.91302603  0.99157202    -0.12300
C152        C  0.49666817  0.95848738  0.00712984     0.23100
C153        C  0.50435009  0.97830030  0.05725276    -0.12900
C154        C  0.49457818  0.95488840  0.09003054     0.04500
C155        C  0.00793094  0.98139528  0.97365661     0.26900
C156        C  0.03249785  0.96046848  0.97517846    -0.13600
C157        C  0.04402382  0.98172230  0.94458292     0.05000
C158        C  0.03212418  0.02628650  0.91469652    -0.09500
C159        C  0.00675601  0.04600651  0.91145492     0.05800
C160        C  0.49447738  0.02318954  0.94071754    -0.13900
Br161      Br  0.02747879  0.03831292  0.08004213    -0.06000
Br162      Br  0.45420079  0.82388248  0.00678222    -0.00300
Br163      Br  0.07641764  0.94862694  0.94512518     0.00100
Br164      Br  0.46018847  0.05032748  0.93808983    -0.04300
Br165      Br  0.50404404  0.98315981  0.15753125     0.00200
Br166      Br  0.47133370  0.88528276  0.92330791    -0.03600
Br167      Br  0.05138930  0.90421237  0.02206136    -0.04500
Br168      Br  0.49003523  0.10583253  0.87008667    -0.00500
C169        C  0.46123641  0.76782430  0.67744477     0.00900
C170        C  0.46214032  0.79907921  0.71787811     0.03800
C171        C  0.48262750  0.83777043  0.73840998    -0.12300
C172        C  0.50202237  0.84610148  0.71828079     0.23100
C173        C  0.00004234  0.81705341  0.67590796    -0.12900
C174        C  0.47971417  0.77819078  0.65545320     0.04500
C175        C  0.02322746  0.88771836  0.73949279     0.26900
C176        C  0.01687930  0.93512382  0.71431504    -0.13600
C177        C  0.03542077  0.97626355  0.73645867     0.05000
C178        C  0.06098178  0.97010707  0.78470570    -0.09500
C179        C  0.06863551  0.92076811  0.80609813     0.05800
C180        C  0.04931388  0.88036798  0.78494926    -0.13900
Br181      Br  0.02515974  0.83096911  0.64567278    -0.06000
Br182      Br  0.43612009  0.78874684  0.74682145    -0.00300
Br183      Br  0.02382177  0.04016831  0.69911835     0.00100
Br184      Br  0.55775354  0.81544712  0.81992634    -0.04300
Br185      Br  0.47633453  0.74085114  0.59535968     0.00200
Br186      Br  0.48441292  0.87959250  0.79456936    -0.03600
Br187      Br  0.98151788  0.94396866  0.65047238    -0.04500
Br188      Br  0.10630582  0.90725420  0.86199959    -0.00500
C189        C  0.44141512  0.46266851  0.68292209     0.00900
C190        C  0.45354485  0.43060368  0.65940619     0.03800
C191        C  0.47177282  0.39067160  0.68867420    -0.12300
C192        C  0.47727973  0.38089505  0.74092637     0.23100
C193        C  0.46329878  0.40996700  0.76288059    -0.12900
C194        C  0.44550164  0.45058502  0.73417822     0.04500
C195        C  0.99686599  0.33858510  0.77155812     0.26900
C196        C  0.98727915  0.28847581  0.76124224    -0.13600
C197        C  0.00635908  0.24782206  0.78407263     0.05000
C198        C  0.03536172  0.25665747  0.82151031    -0.09500
C199        C  0.04415066  0.30755134  0.83484769     0.05800
C200        C  0.02530745  0.34802115  0.80857721    -0.13900
Br201      Br  0.46899406  0.39448778  0.83285191    -0.06000
Br202      Br  0.44664052  0.44173362  0.58792365    -0.00300
Br203      Br  0.99171139  0.18127221  0.75810404     0.00100
Br204      Br  0.03862711  0.41688560  0.82151794    -0.04300
Br205      Br  0.42625120  0.48906496  0.76518742     0.00200
Br206      Br  0.99041044  0.35032339  0.65796949    -0.03600
Br207      Br  0.44759741  0.27595711  0.71383985    -0.04500
Br208      Br  0.08167591  0.32310455  0.88982308    -0.00500
C209        C  0.12261443  0.29444385  0.53403058     0.00900
C210        C  0.10439561  0.25258263  0.52716485     0.03800
C211        C  0.10286762  0.23075828  0.57054665    -0.12300
C212        C  0.11963492  0.24979319  0.62106836     0.23100
C213        C  0.13901879  0.28913587  0.62874032    -0.12900
C214        C  0.14075436  0.31104627  0.58543632     0.04500
C215        C  0.11554774  0.22972087  0.66536052     0.26900
C216        C  0.09705525  0.25494689  0.68006956    -0.13600
C217        C  0.09063086  0.23352886  0.71822650     0.05000
C218        C  0.10281917  0.18692628  0.74206510    -0.09500
C219        C  0.12156315  0.16193009  0.72771544     0.05800
C220        C  0.12809579  0.18352110  0.68964664    -0.13900
Br221      Br  0.16277690  0.31331650  0.69876047    -0.06000
Br222      Br  0.08010074  0.22510244  0.45884450    -0.00300
Br223      Br  0.06588257  0.26933749  0.73874773     0.00100
Br224      Br  0.15421736  0.15018576  0.67057649    -0.04300
Br225      Br  0.16953726  0.36091673  0.59762211     0.00200
Br226      Br  0.07683613  0.17566940  0.56082930    -0.03600
Br227      Br  0.08076013  0.31926326  0.64816734    -0.04500
Br228      Br  0.13718047  0.09700574  0.75847731    -0.00500
C229        C  0.12480904  0.17106247  0.04296904     0.00900
C230        C  0.14054963  0.21612155  0.06152568     0.03800
C231        C  0.13877359  0.24372986  0.10143866    -0.12300
C232        C  0.12200442  0.22567465  0.12424045     0.23100
C233        C  0.10842095  0.17845718  0.10935556    -0.12900
C234        C  0.10955656  0.15132686  0.06845630     0.04500
C235        C  0.11877511  0.25597928  0.16431971     0.26900
C236        C  0.13697255  0.24712334  0.21763594    -0.13600
C237        C  0.13241739  0.27193846  0.25617184     0.05000
C238        C  0.10995238  0.30806884  0.24145523    -0.09500
C239        C  0.09279681  0.31872237  0.18732567     0.05800
C240        C  0.09696398  0.29215124  0.14909977    -0.13900
Br241      Br  0.08750194  0.15197461  0.14425587    -0.06000
Br242      Br  0.16486948  0.23996799  0.03252882    -0.00300
Br243      Br  0.15652260  0.25137378  0.32813533     0.00100
Br244      Br  0.07259220  0.30446396  0.07529580    -0.04300
Br245      Br  0.08845737  0.08931471  0.04585685     0.00200
Br246      Br  0.15860931  0.30709631  0.12405330    -0.03600
Br247      Br  0.16796701  0.19952683  0.23729645    -0.04500
Br248      Br  0.06407739  0.37067113  0.16432582    -0.00500
C249        C  0.44580648  0.02157170  0.19012612     0.00900
C250        C  0.45099278  0.06171935  0.16221601     0.03800
C251        C  0.47092873  0.09988367  0.18968803    -0.12300
C252        C  0.48625219  0.09837935  0.24484042     0.23100
C253        C  0.47982879  0.06106284  0.27286165    -0.12900
C254        C  0.45890937  0.02431048  0.24602962     0.04500
C255        C  0.00757300  0.13851102  0.27342558     0.26900
C256        C  0.03544710  0.13586130  0.27935814    -0.13600
C257        C  0.05471035  0.17619338  0.30216126     0.05000
C258        C  0.04622257  0.21974333  0.31983788    -0.09500
C259        C  0.01886726  0.21966126  0.31801230     0.05800
C260        C  0.99962813  0.17989676  0.29392627    -0.13900
Br261      Br  0.00030937  0.06011754  0.34868201    -0.06000
Br262      Br  0.43141102  0.06650489  0.08640971    -0.00300
Br263      Br  0.09207360  0.17089943  0.30666245     0.00100
Br264      Br  0.46168780  0.18248454  0.28745677    -0.04300
Br265      Br  0.44776062  0.98042437  0.28773333     0.00200
Br266      Br  0.47768120  0.15477772  0.15197684    -0.03600
Br267      Br  0.04695647  0.07690397  0.25511318    -0.04500
Br268      Br  0.00700094  0.27260115  0.34972500    -0.00500
C269        C  0.06154658  0.52486133  0.30122881     0.00900
C270        C  0.05181535  0.56124005  0.32536209     0.03800
C271        C  0.03219044  0.59874722  0.29451652    -0.12300
C272        C  0.02239965  0.60104470  0.23988262     0.23100
C273        C  0.03497219  0.56958817  0.21711671    -0.12900
C274        C  0.05524814  0.53298872  0.24810058     0.04500
C275        C  0.50064503  0.63973788  0.20799446     0.26900
C276        C  0.47152767  0.63130381  0.19192075    -0.13600
C277        C  0.45158228  0.67115932  0.17040873     0.05000
C278        C  0.46077327  0.72040868  0.16520348    -0.09500
C279        C  0.48972825  0.72643512  0.17537595     0.05800
C280        C  0.50946799  0.68682595  0.19808340    -0.13900
Br281      Br  0.52429757  0.57653107  0.14340732    -0.06000
Br282      Br  0.06459624  0.56139843  0.40026792    -0.00300
Br283      Br  0.41203245  0.65655172  0.14867738     0.00100
Br284      Br  0.54937261  0.69767920  0.21887689    -0.04300
Br285      Br  0.07655036  0.49810518  0.21901428     0.00200
Br286      Br  0.01823791  0.64740012  0.32679592    -0.03600
Br287      Br  0.95932522  0.56508934  0.20159608    -0.04500
Br288      Br  0.50367077  0.78763376  0.15744409    -0.00500
C289        C  0.31663452  0.56907073  0.56028949     0.00900
C290        C  0.31434620  0.51979014  0.57774680     0.03800
C291        C  0.28824314  0.49384269  0.55467617    -0.12300
C292        C  0.26380245  0.51732429  0.51543850     0.23100
C293        C  0.26543732  0.56754609  0.50020578    -0.12900
C294        C  0.29174349  0.59337911  0.52226955     0.04500
C295        C  0.23607792  0.49001525  0.49313826     0.26900
C296        C  0.22699224  0.46058659  0.44749867    -0.13600
C297        C  0.20155683  0.43224923  0.42888344     0.05000
C298        C  0.18468477  0.43434145  0.45509563    -0.09500
C299        C  0.19336112  0.46582290  0.49948801     0.05800
C300        C  0.21918911  0.49240532  0.51900193    -0.13900
Br301      Br  0.23149749  0.60027645  0.44813462    -0.06000
Br302      Br  0.34673207  0.48780654  0.63493322    -0.00300
Br303      Br  0.18879024  0.39391995  0.36528113     0.00100
Br304      Br  0.23159475  0.53265598  0.58147369    -0.04300
Br305      Br  0.29339042  0.66095103  0.49792717     0.00200
Br306      Br  0.28586037  0.42538326  0.57616656    -0.03600
Br307      Br  0.24909139  0.46064639  0.40984076    -0.04500
Br308      Br  0.16988650  0.47421003  0.53392630    -0.00500
C309        C  0.46612291  0.56606430  0.55012690     0.00900
C310        C  0.45038791  0.55147036  0.49651392     0.03800
C311        C  0.46195157  0.51728274  0.47482331    -0.12300
C312        C  0.49123813  0.50748645  0.49994080     0.23100
C313        C  0.00836432  0.52866731  0.54980888    -0.12900
C314        C  0.49566332  0.55526911  0.57623065     0.04500
C315        C  0.00349305  0.47773395  0.47133933     0.26900
C316        C  0.01401242  0.42845365  0.48803946    -0.13600
C317        C  0.02512992  0.40068387  0.46005704     0.05000
C318        C  0.02381345  0.42031248  0.41292281    -0.09500
C319        C  0.00920932  0.46596179  0.39236518     0.05800
C320        C  0.00137065  0.49647719  0.42337285    -0.13900
Br321      Br  0.04914608  0.52209789  0.58124207    -0.06000
Br322      Br  0.41436117  0.58153626  0.44792140    -0.00300
Br323      Br  0.04202731  0.33532245  0.48618547     0.00100
Br324      Br  0.48877317  0.56493276  0.40089614    -0.04300
Br325      Br  0.01938306  0.57903531  0.64644107     0.00200
Br326      Br  0.43713022  0.48284203  0.41051318    -0.03600
Br327      Br  0.01317198  0.39895455  0.54905241    -0.04500
Br328      Br  0.99895184  0.48612793  0.32133605    -0.00500
O329        O  0.57835425  0.34168997  0.27337698    -0.82200
C330        C  0.62139715  0.32152409  0.48737844     0.97200
O331        O  0.61846403  0.29639399  0.44851860    -0.71300
O332        O  0.59061287  0.26741520  0.35152672    -0.74900
Al333      Al  0.61970637  0.31943149  0.38798737     1.49000
C334        C  0.56374978  0.26725767  0.33464706     0.92400
O335        O  0.53972103  0.40028359  0.34822741    -0.81100
O336        O  0.58302182  0.46923176  0.37667059    -0.74700
Al337      Al  0.56269518  0.37168486  0.31693578     1.90100
O338        O  0.56978247  0.39691193  0.43188619    -0.73800
O339        O  0.63529867  0.43601779  0.42418837    -0.73600
O340        O  0.62195725  0.36934012  0.48549658    -0.79300
O341        O  0.65372622  0.36129917  0.42721232    -0.77500
O342        O  0.59489252  0.36838677  0.37674368    -1.13600
O343        O  0.62352423  0.33660539  0.32788429    -0.72800
C344        C  0.60360890  0.33126467  0.28236380     0.97900
C345        C  0.54491368  0.40301039  0.39607861     0.94300
Al346      Al  0.60206153  0.41421566  0.42550973     1.55600
O347        O  0.55077895  0.30845262  0.32767686    -0.77400
C348        C  0.65651613  0.40890567  0.43367887     0.98500
C349        C  0.57356883  0.47499721  0.32756722     0.93400
O350        O  0.57119567  0.43683108  0.29979460    -0.82700
O351        O  0.57283576  0.05767465  0.79501545    -0.82200
C352        C  0.62035384  0.15108049  0.99176350     0.97200
O353        O  0.62421361  0.10474529  0.98551739    -0.71300
O354        O  0.57456680  0.06583028  0.93266849    -0.74900
Al355      Al  0.60616037  0.06425390  0.92156179     1.49000
C356        C  0.54994599  0.05649935  0.89796018     0.92400
O357        O  0.54706650  0.16932737  0.84189166    -0.81100
O358        O  0.61936841  0.16538404  0.83087435    -0.74700
Al359      Al  0.56148196  0.11349937  0.82104293     1.90100
O360        O  0.58281438  0.21891396  0.85711818    -0.73800
O361        O  0.65258755  0.13643680  0.93058615    -0.73600
O362        O  0.61257070  0.18196502  0.95399556    -0.79300
O363        O  0.63973512  0.05710744  0.91569079    -0.77500
O364        O  0.59441597  0.11625188  0.87818350    -1.13600
O365        O  0.58878059  0.01281406  0.86679912    -0.72800
C366        C  0.57621870  0.01522060  0.81690449     0.97900
C367        C  0.55630812  0.21324890  0.84264457     0.94300
Al368      Al  0.61536577  0.17150955  0.89223661     1.55600
O369        O  0.54213995  0.06987271  0.85070145    -0.77400
C370        C  0.65907434  0.08980266  0.93266781     0.98500
C371        C  0.59834926  0.16720117  0.78573745     0.93400
O372        O  0.57359218  0.15505175  0.77851953    -0.82700
O373        O  0.93736486  0.55065101  0.68961649    -0.82200
C374        C  0.87713343  0.67686022  0.51371028     0.97200
O375        O  0.87413407  0.62921243  0.51303779    -0.71300
O376        O  0.92436185  0.59415969  0.55057335    -0.74900
Al377      Al  0.89551719  0.57965428  0.56744101     1.49000
C378        C  0.95017582  0.58557817  0.57806051     0.92400
O379        O  0.95503394  0.68044983  0.65992776    -0.81100
O380        O  0.88889370  0.65350560  0.68352614    -0.74700
Al381      Al  0.94403964  0.61577469  0.67159723     1.90100
O382        O  0.91789365  0.72180300  0.65367603    -0.73800
O383        O  0.85088150  0.63736642  0.58499933    -0.73600
O384        O  0.88387069  0.69977824  0.55579486    -0.79300
O385        O  0.86441292  0.56124020  0.57776601    -0.77500
O386        O  0.90878355  0.62281458  0.61986682    -1.13600
O387        O  0.91520281  0.52044768  0.61024624    -0.72800
C388        C  0.92987687  0.51342418  0.65941543     0.97900
C389        C  0.94356622  0.72127326  0.66215755     0.94300
Al390      Al  0.88701130  0.67389938  0.61944382     1.55600
O391        O  0.96056778  0.58853311  0.62768821    -0.77400
C392        C  0.84546011  0.59067375  0.57596984     0.98500
C393        C  0.91129969  0.64853152  0.72632074     0.93400
O394        O  0.93482371  0.64001500  0.72604068    -0.82700
O395        O  0.92787479  0.84252470  0.22095544    -0.82200
C396        C  0.88006233  0.82202791  0.00430218     0.97200
O397        O  0.88532851  0.79692568  0.04477929    -0.71300
O398        O  0.91532502  0.76431746  0.13900244    -0.74900
Al399      Al  0.88523069  0.81586041  0.10685513     1.49000
C400        C  0.94204914  0.76640875  0.15472603     0.92400
O401        O  0.96301756  0.89883662  0.14019066    -0.81100
O402        O  0.92038344  0.96868288  0.11364802    -0.74700
Al403      Al  0.94164569  0.87094035  0.17450828     1.90100
O404        O  0.93118950  0.89695996  0.05731767    -0.73800
O405        O  0.86773039  0.93389184  0.07020518    -0.73600
O406        O  0.87861926  0.86965631  0.00601929    -0.79300
O407        O  0.85060949  0.85849792  0.07212587    -0.77500
O408        O  0.90879887  0.86675507  0.11628795    -1.13600
O409        O  0.88298212  0.82669639  0.16937565    -0.72800
C410        C  0.90357289  0.82903265  0.21467254     0.97900
C411        C  0.95655075  0.90061930  0.09179796     0.94300
Al412      Al  0.90004421  0.91350349  0.06612021     1.55600
O413        O  0.95408092  0.80850858  0.16492606    -0.77400
C414        C  0.84740325  0.90639203  0.06575790     0.98500
C415        C  0.93124273  0.97349582  0.16307349     0.93400
O416        O  0.93290298  0.93510473  0.19040307    -0.82700
C417        C  0.90937859  0.65794438  0.77591964     0.00900
C418        C  0.93227873  0.67917461  0.82073280     0.03800
C419        C  0.92706895  0.70289281  0.85934709    -0.13100
C420        C  0.89913497  0.70608865  0.85330052     0.23100
C421        C  0.87706070  0.68029120  0.81181168    -0.12900
C422        C  0.88248798  0.65412823  0.77506787     0.04500
C423        C  0.89254960  0.73654414  0.88984735     0.26900
C424        C  0.88626714  0.71217180  0.92696242    -0.13600
C425        C  0.87719569  0.74037340  0.95771237     0.05000
C426        C  0.87828172  0.79411437  0.95747592    -0.09500
C427        C  0.88264170  0.81836371  0.91746884     0.05800
C428        C  0.88929946  0.78943553  0.88342457    -0.13900
Br429      Br  0.83875480  0.68345490  0.80324528    -0.06000
Br430      Br  0.97082116  0.67711481  0.83024344    -0.00300
Br431      Br  0.86045204  0.70410794  0.99548768     0.00100
Br432      Br  0.89392203  0.82196055  0.82741346    -0.04300
Br433      Br  0.85308959  0.61100223  0.72525880     0.00200
Br434      Br  0.95810570  0.73230713  0.91981709    -0.03600
Br435      Br  0.89040059  0.63970995  0.93615901    -0.04500
Br436      Br  0.87917172  0.89066257  0.90735284    -0.00500
C437        C  0.87501495  0.70530488  0.46627418     0.00900
C438        C  0.88892075  0.75293653  0.47200581     0.03800
C439        C  0.89291235  0.77354739  0.43042390    -0.12300
C440        C  0.88182027  0.74915746  0.38183968     0.23100
C441        C  0.86547522  0.70506119  0.37391819    -0.12900
C442        C  0.86198704  0.68317824  0.41567796     0.04500
C443        C  0.88750641  0.77024572  0.33923022     0.26900
C444        C  0.86876687  0.80578294  0.30306043    -0.13600
C445        C  0.87472406  0.82707567  0.26398318     0.05000
C446        C  0.89923147  0.81203172  0.25998807    -0.09500
C447        C  0.91781367  0.77585759  0.29606515     0.05800
C448        C  0.91227118  0.75602543  0.33616643    -0.13900
Br449      Br  0.84820078  0.67447354  0.30548498    -0.06000
Br450      Br  0.90265474  0.79253145  0.53532810    -0.00300
Br451      Br  0.84940931  0.87768282  0.21670827     0.00100
Br452      Br  0.93857691  0.70897166  0.38713957    -0.04300
Br453      Br  0.83802719  0.62417084  0.40139481     0.00200
Br454      Br  0.91452995  0.83506118  0.44001481    -0.03600
Br455      Br  0.83479954  0.82489194  0.30721332    -0.04500
Br456      Br  0.94951626  0.74935532  0.28819242    -0.00500
C457        C  0.68911078  0.07128368  0.95794243     0.00900
C458        C  0.70846446  0.08637217  0.93944128     0.03800
C459        C  0.73497532  0.06135545  0.95758656    -0.12300
C460        C  0.74242242  0.02150099  0.99475652     0.23100
C461        C  0.72394892  0.00875343  0.01572854    -0.12900
C462        C  0.69754696  0.03337309  0.99764409     0.04500
C463        C  0.76947496  0.99229925  0.01224615     0.26900
C464        C  0.76951481  0.94600956  0.98832550    -0.13600
C465        C  0.79443759  0.91612817  0.00751012     0.05000
C466        C  0.81972607  0.93245674  0.05082317    -0.09500
C467        C  0.81950066  0.97898906  0.07483225     0.05800
C468        C  0.79449607  0.00838286  0.05581259    -0.13900
Br469      Br  0.73496672  0.95661292  0.06922253    -0.06000
Br470      Br  0.69818750  0.13968990  0.88770816    -0.00300
Br471      Br  0.79418939  0.85468143  0.97182516     0.00100
Br472      Br  0.79426301  0.07089755  0.08962310    -0.04300
Br473      Br  0.67358711  0.01525602  0.02929310     0.00200
Br474      Br  0.76089314  0.08066734  0.93076599    -0.03600
Br475      Br  0.73523046  0.92413784  0.92850738    -0.04500
Br476      Br  0.85340917  0.00311230  0.13450070    -0.00500
C477        C  0.97723517  0.91172741  0.07247391     0.00900
C478        C  0.97276081  0.88866880  0.02527026     0.03800
C479        C  0.98137558  0.91302579  0.99157362    -0.12300
C480        C  0.99666897  0.95848793  0.00712982     0.23100
C481        C  0.00434997  0.97830309  0.05725154    -0.12900
C482        C  0.99457761  0.95489266  0.09002932     0.04500
C483        C  0.50793012  0.98139555  0.97365695     0.26900
C484        C  0.53249649  0.96046809  0.97517722    -0.13600
C485        C  0.54402171  0.98172124  0.94458019     0.05000
C486        C  0.53212247  0.02628620  0.91469523    -0.09500
C487        C  0.50675494  0.04600725  0.91145547     0.05800
C488        C  0.99447815  0.02318876  0.94071639    -0.13900
Br489      Br  0.52747991  0.03830876  0.08004529    -0.06000
Br490      Br  0.95420231  0.82388321  0.00678616    -0.00300
Br491      Br  0.57641370  0.94862362  0.94511773     0.00100
Br492      Br  0.96018860  0.05032598  0.93808669    -0.04300
Br493      Br  0.00404199  0.98316705  0.15752814     0.00200
Br494      Br  0.97133681  0.88527931  0.92331145    -0.03600
Br495      Br  0.55138820  0.90421164  0.02205939    -0.04500
Br496      Br  0.99003575  0.10583066  0.87008432    -0.00500
C497        C  0.96123622  0.76782481  0.67744503     0.00900
C498        C  0.96214079  0.79907893  0.71787940     0.03800
C499        C  0.98262856  0.83776914  0.73841226    -0.12300
C500        C  0.00202320  0.84610050  0.71828259     0.23100
C501        C  0.50004222  0.81705343  0.67590736    -0.12900
C502        C  0.97971393  0.77819129  0.65545332     0.04500
C503        C  0.52322647  0.88771946  0.73949073     0.26900
C504        C  0.51687815  0.93512492  0.71431294    -0.13600
C505        C  0.53541944  0.97626484  0.73645686     0.05000
C506        C  0.56098060  0.97010815  0.78470368    -0.09500
C507        C  0.56863456  0.92076911  0.80609573     0.05800
C508        C  0.54931295  0.88036902  0.78494703    -0.13900
Br509      Br  0.52516030  0.83096835  0.64567352    -0.06000
Br510      Br  0.93612055  0.78874680  0.74682263    -0.00300
Br511      Br  0.52381988  0.04017016  0.69911761     0.00100
Br512      Br  0.05775443  0.81544598  0.81992831    -0.04300
Br513      Br  0.97633357  0.74085229  0.59535890     0.00200
Br514      Br  0.98441509  0.87958945  0.79457367    -0.03600
Br515      Br  0.48151687  0.94396942  0.65046970    -0.04500
Br516      Br  0.60630517  0.90725502  0.86199641    -0.00500
C517        C  0.94141515  0.46266899  0.68292113     0.00900
C518        C  0.95354482  0.43060464  0.65940474     0.03800
C519        C  0.97177301  0.39067259  0.68867226    -0.12300
C520        C  0.97728021  0.38089550  0.74092451     0.23100
C521        C  0.96329941  0.40996706  0.76287935    -0.12900
C522        C  0.94550200  0.45058501  0.73417738     0.04500
C523        C  0.49686543  0.33858489  0.77156057     0.26900
C524        C  0.48727852  0.28847562  0.76124500    -0.13600
C525        C  0.50635856  0.24782201  0.78407503     0.05000
C526        C  0.53536119  0.25665744  0.82151256    -0.09500
C527        C  0.54415016  0.30755131  0.83484991     0.05800
C528        C  0.52530692  0.34802104  0.80857939    -0.13900
Br529      Br  0.96899535  0.39448777  0.83285110    -0.06000
Br530      Br  0.94664011  0.44173514  0.58792207    -0.00300
Br531      Br  0.49171097  0.18127251  0.75810524     0.00100
Br532      Br  0.53862662  0.41688554  0.82151988    -0.04300
Br533      Br  0.92625174  0.48906421  0.76518742     0.00200
Br534      Br  0.49041019  0.35032115  0.65797222    -0.03600
Br535      Br  0.94759818  0.27595749  0.71383630    -0.04500
Br536      Br  0.58167544  0.32310454  0.88982506    -0.00500
C537        C  0.62261506  0.29444226  0.53403319     0.00900
C538        C  0.60439591  0.25258173  0.52716760     0.03800
C539        C  0.60286777  0.23075794  0.57054949    -0.12300
C540        C  0.61963519  0.24979300  0.62107113     0.23100
C541        C  0.63901943  0.28913497  0.62874301    -0.12900
C542        C  0.64075512  0.31104474  0.58543889     0.04500
C543        C  0.61554795  0.22972125  0.66536335     0.26900
C544        C  0.59705548  0.25494759  0.68007218    -0.13600
C545        C  0.59063060  0.23352947  0.71822846     0.05000
C546        C  0.60281896  0.18692706  0.74206740    -0.09500
C547        C  0.62156334  0.16193100  0.72771865     0.05800
C548        C  0.62809600  0.18352164  0.68964977    -0.13900
Br549      Br  0.66277810  0.31331532  0.69876319    -0.06000
Br550      Br  0.58010084  0.22510165  0.45884728    -0.00300
Br551      Br  0.56588122  0.26933715  0.73874774     0.00100
Br552      Br  0.65421755  0.15018610  0.67057966    -0.04300
Br553      Br  0.66953823  0.36091449  0.59762446     0.00200
Br554      Br  0.57683613  0.17566938  0.56083243    -0.03600
Br555      Br  0.58076106  0.31926439  0.64817047    -0.04500
Br556      Br  0.63718153  0.09700759  0.75848238    -0.00500
C557        C  0.62480849  0.17105867  0.04297067     0.00900
C558        C  0.64054918  0.21611762  0.06152800     0.03800
C559        C  0.63877320  0.24372507  0.10144148    -0.12300
C560        C  0.62200392  0.22566929  0.12424285     0.23100
C561        C  0.60842031  0.17845203  0.10935718    -0.12900
C562        C  0.60955603  0.15132243  0.06845767     0.04500
C563        C  0.61877439  0.25597346  0.16432204     0.26900
C564        C  0.63697237  0.24711870  0.21763826    -0.13600
C565        C  0.63241746  0.27193436  0.25617418     0.05000
C566        C  0.60995214  0.30806414  0.24145741    -0.09500
C567        C  0.59279585  0.31871614  0.18732773     0.05800
C568        C  0.59696275  0.29214438  0.14910192    -0.13900
Br569      Br  0.58750098  0.15196894  0.14425667    -0.06000
Br570      Br  0.66486888  0.23996528  0.03253118    -0.00300
Br571      Br  0.65652327  0.25137110  0.32813801     0.00100
Br572      Br  0.57258984  0.30445452  0.07529781    -0.04300
Br573      Br  0.58845684  0.08931049  0.04585723     0.00200
Br574      Br  0.65860911  0.30709133  0.12405722    -0.03600
Br575      Br  0.66796719  0.19952303  0.23729881    -0.04500
Br576      Br  0.56407567  0.37066357  0.16432739    -0.00500
C577        C  0.94580522  0.02157558  0.19012657     0.00900
C578        C  0.95099087  0.06172408  0.16221641     0.03800
C579        C  0.97092670  0.09988853  0.18968847    -0.12300
C580        C  0.98625061  0.09838366  0.24484081     0.23100
C581        C  0.97982748  0.06106669  0.27286209    -0.12900
C582        C  0.95890817  0.02431413  0.24603003     0.04500
C583        C  0.50757436  0.13850690  0.27342541     0.26900
C584        C  0.53544855  0.13585754  0.27935844    -0.13600
C585        C  0.55471178  0.17618934  0.30216293     0.05000
C586        C  0.54622385  0.21973856  0.31984031    -0.09500
C587        C  0.51886841  0.21965604  0.31801418     0.05800
C588        C  0.49962930  0.17989185  0.29392681    -0.13900
Br589      Br  0.50031074  0.06011375  0.34868162    -0.06000
Br590      Br  0.93140810  0.06651090  0.08641015    -0.00300
Br591      Br  0.59207524  0.17089598  0.30666519     0.00100
Br592      Br  0.96168673  0.18249021  0.28745640    -0.04300
Br593      Br  0.94775957  0.98042741  0.28773368     0.00200
Br594      Br  0.97767828  0.15478372  0.15197727    -0.03600
Br595      Br  0.54695804  0.07690133  0.25511201    -0.04500
Br596      Br  0.50700170  0.27259505  0.34972736    -0.00500
C597        C  0.56154468  0.52485629  0.30122884     0.00900
C598        C  0.55181345  0.56123512  0.32536212     0.03800
C599        C  0.53218875  0.59874262  0.29451653    -0.12300
C600        C  0.52239770  0.60103976  0.23988254     0.23100
C601        C  0.53496959  0.56958225  0.21711629    -0.12900
C602        C  0.55524570  0.53298304  0.24810017     0.04500
C603        C  0.00064702  0.63974289  0.20799466     0.26900
C604        C  0.97152951  0.63130788  0.19191860    -0.13600
C605        C  0.95158394  0.67116313  0.17040648     0.05000
C606        C  0.96077488  0.72041333  0.16520391    -0.09500
C607        C  0.98973031  0.72644112  0.17537944     0.05800
C608        C  0.00947014  0.68683210  0.19808680    -0.13900
Br609      Br  0.02430148  0.57653900  0.14340849    -0.06000
Br610      Br  0.56459357  0.56139278  0.40026786    -0.00300
Br611      Br  0.91203387  0.65655403  0.14867109     0.00100
Br612      Br  0.04937511  0.69768705  0.21888512    -0.04300
Br613      Br  0.57654683  0.49809839  0.21901235     0.00200
Br614      Br  0.51823675  0.64739637  0.32679595    -0.03600
Br615      Br  0.45932332  0.56508629  0.20160119    -0.04500
Br616      Br  0.00367343  0.78764126  0.15745154    -0.00500
C617        C  0.81663415  0.56907097  0.56028906     0.00900
C618        C  0.81434610  0.51979093  0.57774776     0.03800
C619        C  0.78824317  0.49384296  0.55467807    -0.12300
C620        C  0.76380227  0.51732368  0.51543999     0.23100
C621        C  0.76543690  0.56754503  0.50020577    -0.12900
C622        C  0.79174297  0.59337844  0.52226845     0.04500
C623        C  0.73607789  0.49001404  0.49314009     0.26900
C624        C  0.72699212  0.46058583  0.44750017    -0.13600
C625        C  0.70155671  0.43224847  0.42888477     0.05000
C626        C  0.68468474  0.43434005  0.45509712    -0.09500
C627        C  0.69336113  0.46582113  0.49948974     0.05800
C628        C  0.71918911  0.49240364  0.51900387    -0.13900
Br629      Br  0.73149679  0.60027423  0.44813421    -0.06000
Br630      Br  0.84673225  0.48780878  0.63493480    -0.00300
Br631      Br  0.68878984  0.39392028  0.36528186     0.00100
Br632      Br  0.73159475  0.53265370  0.58147604    -0.04300
Br633      Br  0.79338976  0.66094953  0.49792401     0.00200
Br634      Br  0.78586086  0.42538398  0.57617010    -0.03600
Br635      Br  0.74909110  0.46064602  0.40984196    -0.04500
Br636      Br  0.66988647  0.47420810  0.53392786    -0.00500
C637        C  0.96612314  0.56606651  0.55012724     0.00900
C638        C  0.95038839  0.55147542  0.49651333     0.03800
C639        C  0.96195155  0.51728792  0.47482173    -0.12300
C640        C  0.99123785  0.50748916  0.49993966     0.23100
C641        C  0.50836454  0.52866711  0.54980866    -0.12900
C642        C  0.99566327  0.55526901  0.57623139     0.04500
C643        C  0.50349355  0.47773084  0.47134124     0.26900
C644        C  0.51401374  0.42845131  0.48804320    -0.13600
C645        C  0.52513096  0.40068070  0.46006084     0.05000
C646        C  0.52381373  0.42030793  0.41292550    -0.09500
C647        C  0.50920890  0.46595635  0.39236649     0.05800
C648        C  0.50137027  0.49647255  0.42337362    -0.13900
Br649      Br  0.54914642  0.52210092  0.58124050    -0.06000
Br650      Br  0.91436313  0.58154611  0.44792103    -0.00300
Br651      Br  0.54202874  0.33531979  0.48619055     0.00100
Br652      Br  0.98877470  0.56493838  0.40089772    -0.04300
Br653      Br  0.51938321  0.57903947  0.64643868     0.00200
Br654      Br  0.93712970  0.48285072  0.41050962    -0.03600
Br655      Br  0.51317485  0.39895450  0.54905862    -0.04500
Br656      Br  0.49895062  0.48612037  0.32133643    -0.00500
loop_ 
_geom_bond_atom_site_label_1 
_geom_bond_atom_site_label_2 
_geom_bond_distance 
_geom_bond_site_symmetry_2 
_ccdc_geom_bond_type 
O1           C16   1.272       .  A
O1           Al9   1.968       .  S
C2           O12   1.267       .  A
C2            O3   1.252       .  A
C2          C209   1.488       .  S
O3           Al5   1.866       .  S
O4            C6   1.275       .  A
O4           Al5   1.974       .  S
Al5          O13   1.971       .  S
Al5          O15   1.880       .  S
Al5          O14   1.769       .  S
C6           O19   1.256       .  A
C6          C258   1.505       .  S
O7           C17   1.274       .  A
O7           Al9   1.975       .  S
O8           C21   1.268       .  A
O8          Al18   1.941       .  S
Al9          O22   1.898       .  S
Al9          O19   1.860       .  S
Al9          O14   1.778       .  S
O10          C17   1.252       .  A
O10         Al18   1.859       .  S
O11          C20   1.255       .  A
O11         Al18   1.870       .  S
O12         Al18   1.944       .  S
O13          C20   1.274       .  A
O14         Al18   1.766       .  S
O15          C16   1.254       .  A
C16         C238   1.501       .  S
C17         C318   1.485       .  S
C20         C298   1.488       .  S
C21          O22   1.264       .  A
C21         C269   1.504       .  S
O23          C38   1.254       .  A
O23         Al31   1.885       .  S
C24          O34   1.259       .  A
C24          O25   1.273       .  A
C24         C229   1.481   1_556  S
O25         Al27   1.962       .  S
O26          C28   1.249       .  A
O26         Al27   1.846       .  S
Al27         O35   1.875       .  S
Al27         O37   1.969       .  S
Al27         O36   1.758       .  S
C28          O41   1.269       .  A
C28         C158   1.473       .  S
O29          C39   1.257       .  A
O29         Al31   1.892       .  S
O30          C43   1.261       .  A
O30         Al40   1.879       .  S
Al31         O44   1.951       .  S
Al31         O41   1.972       .  S
Al31         O36   1.761       .  S
O32          C39   1.277       .  A
O32         Al40   1.988       .  S
O33          C42   1.276       .  A
O33         Al40   1.989       .  S
O34         Al40   1.871       .  S
O35          C42   1.257       .  A
O36         Al40   1.767       .  S
O37          C38   1.272       .  A
C38         C178   1.504   1_545  S
C39         C198   1.515       .  S
C42         C129   1.495       .  S
C43          O44   1.272       .  A
C43         C218   1.471       .  S
O45          C60   1.256       .  A
O45         Al53   1.874       .  S
C46          O56   1.254       .  A
C46          O47   1.270       .  A
C46         C109   1.508       .  S
O47         Al49   1.944       .  S
O48          C50   1.245       .  A
O48         Al49   1.844       .  S
Al49         O57   1.868       .  S
Al49         O59   1.961       .  S
Al49         O58   1.766       .  S
C50          O63   1.272       .  A
C50         C309   1.505       .  S
O51          C61   1.259       .  A
O51         Al53   1.883       .  S
O52          C65   1.260       .  A
O52         Al62   1.871       .  S
Al53         O66   1.956       .  S
Al53         O63   1.981       .  S
Al53         O58   1.780       .  S
O54          C61   1.268       .  A
O54         Al62   1.944       .  S
O55          C64   1.270       .  A
O55         Al62   1.960       .  S
O56         Al62   1.880       .  S
O57          C64   1.256       .  A
O58         Al62   1.778       .  S
O59          C60   1.271       .  A
C60         C189   1.497       .  S
C61         C169   1.487       .  S
C64         C289   1.493       .  S
C65          O66   1.272       .  A
C65          C89   1.498       .  S
O67          C82   1.267       .  A
O67         Al75   1.938       .  S
C68          O78   1.266       .  A
C68          O69   1.248       .  A
C68          C98   1.506   1_554  S
O69         Al71   1.860       .  S
O70          C72   1.274       .  A
O70         Al71   1.972       .  S
Al71         O79   1.985       .  S
Al71         O81   1.879       .  S
Al71         O80   1.770       .  S
C72          O85   1.251       .  A
C72         C278   1.512       .  S
O73          C83   1.269       .  A
O73         Al75   1.953       .  S
O74          C87   1.270       .  A
O74         Al84   1.957       .  S
Al75         O88   1.878       .  S
Al75         O85   1.852       .  S
Al75         O80   1.776       .  S
O76          C83   1.253       .  A
O76         Al84   1.838       .  S
O77          C86   1.256       .  A
O77         Al84   1.854       .  S
O78         Al84   1.959       .  S
O79          C86   1.280       .  A
O80         Al84   1.781       .  S
O81          C82   1.256       .  A
C82         C118   1.488       .  S
C83         C149   1.468       .  S
C86         C138   1.495       .  S
C87          O88   1.256       .  A
C87         C249   1.510   1_565  S
C89          C90   1.419       .  A
C89          C94   1.418       .  A
C90          C91   1.415       .  A
C90        Br102   1.934       .  S
C91          C92   1.412       .  A
C91        Br106   1.926       .  S
C92          C95   1.495       .  S
C92          C93   1.407       .  A
C93          C94   1.405       .  A
C93        Br101   1.932       .  S
C94        Br105   1.934       .  S
C95          C96   1.406       .  A
C95         C100   1.411       .  A
C96          C97   1.407       .  A
C96        Br107   1.933       .  S
C97          C98   1.424       .  A
C97        Br103   1.936       .  S
C98          C99   1.420       .  A
C99         C100   1.416       .  A
C99        Br108   1.930       .  S
C100       Br104   1.930       .  S
C109        C110   1.430       .  A
C109        C114   1.421       .  A
C110        C111   1.410       .  A
C110       Br122   1.936       .  S
C111        C112   1.403       .  A
C111       Br126   1.935       .  S
C112        C115   1.492       .  S
C112        C113   1.408       .  A
C113        C114   1.414       .  A
C113       Br121   1.930       .  S
C114       Br125   1.934       .  S
C115        C116   1.409       .  A
C115        C120   1.409       .  A
C116        C117   1.411       .  A
C116       Br127   1.929       .  S
C117        C118   1.416       .  A
C117       Br123   1.932       .  S
C118        C119   1.416       .  A
C119        C120   1.410       .  A
C119       Br128   1.933       .  S
C120       Br124   1.931       .  S
C129        C130   1.411       .  A
C129        C134   1.420       .  A
C130        C131   1.418       .  A
C130       Br142   1.926       .  S
C131        C132   1.414       .  A
C131       Br146   1.926       .  S
C132        C135   1.498   1_546  S
C132        C133   1.405   1_556  A
C133        C134   1.408   1_554  A
C133       Br141   1.934   1_545  S
C134       Br145   1.930   1_556  S
C135        C136   1.412   1_554  A
C135        C140   1.407   1_565  A
C136        C137   1.415   1_556  A
C136       Br147   1.929       .  S
C137        C138   1.414       .  A
C137       Br143   1.929   1_554  S
C138        C139   1.421       .  A
C139        C140   1.411   1_565  A
C139       Br148   1.935   1_565  S
C140       Br144   1.931       .  S
C149        C150   1.410       .  A
C149        C154   1.408       .  A
C150        C151   1.398   1_554  A
C150       Br162   1.928       .  S
C151        C152   1.405   1_556  A
C151       Br166   1.932       .  S
C152        C483   1.471   1_554  S
C152        C153   1.410       .  A
C153        C154   1.406       .  A
C153       Br489   1.929   1_565  S
C154       Br165   1.924       .  S
C155        C480   1.471   1_456  S
C155        C156   1.400       .  A
C155        C488   1.410   1_465  A
C156        C157   1.395       .  A
C156       Br167   1.939   1_556  S
C157        C158   1.418   1_565  A
C157       Br163   1.925       .  S
C158        C159   1.407       .  A
C159        C488   1.410   1_455  A
C159       Br496   1.925   1_455  S
C160        C483   1.410   1_545  A
C160        C487   1.410       .  A
C160       Br164   1.926       .  S
Br161       C481   1.929   1_545  S
Br168       C487   1.925       .  S
C169        C170   1.416       .  A
C169        C174   1.415       .  A
C170        C171   1.411       .  A
C170       Br182   1.930       .  S
C171        C172   1.409       .  A
C171       Br186   1.932       .  S
C172        C503   1.490       .  S
C172        C501   1.409       .  A
C173        C500   1.409       .  A
C173        C502   1.409   1_455  A
C173       Br181   1.930       .  S
C174        C501   1.409       .  A
C174       Br185   1.934       .  S
C175        C500   1.490       .  S
C175        C176   1.404       .  A
C175        C180   1.409       .  A
C176        C177   1.409       .  A
C176       Br187   1.937   1_455  S
C177        C178   1.430       .  A
C177       Br183   1.937   1_565  S
C178        C179   1.416       .  A
C179        C180   1.412       .  A
C179       Br188   1.931       .  S
C180       Br512   1.928       .  S
Br184       C508   1.928       .  S
C189        C190   1.417       .  A
C189        C194   1.419       .  A
C190        C191   1.413       .  A
C190       Br202   1.932       .  S
C191        C192   1.412       .  A
C191       Br534   1.931       .  S
C192        C523   1.501       .  S
C192        C193   1.410       .  A
C193        C194   1.413       .  A
C193       Br201   1.929       .  S
C194       Br205   1.934       .  S
C195        C520   1.501       .  S
C195        C196   1.404       .  A
C195        C200   1.410   1_655  A
C196        C197   1.412   1_655  A
C196       Br535   1.936       .  S
C197        C198   1.432       .  A
C197       Br203   1.936   1_455  S
C198        C199   1.422       .  A
C199        C200   1.418       .  A
C199       Br208   1.931       .  S
C200       Br204   1.930       .  S
Br206       C519   1.931       .  S
Br207       C524   1.936       .  S
C209        C210   1.422       .  A
C209        C214   1.413       .  A
C210        C211   1.404       .  A
C210       Br222   1.931       .  S
C211        C212   1.404       .  A
C211       Br226   1.936       .  S
C212        C215   1.479       .  S
C212        C213   1.406       .  A
C213        C214   1.408       .  A
C213       Br221   1.929       .  S
C214       Br225   1.923       .  S
C215        C216   1.407       .  A
C215        C220   1.409       .  A
C216        C217   1.403       .  A
C216       Br227   1.932       .  S
C217        C218   1.410       .  A
C217       Br223   1.925       .  S
C218        C219   1.409       .  A
C219        C220   1.406       .  A
C219       Br228   1.930       .  S
C220       Br224   1.929       .  S
C229        C230   1.414       .  A
C229        C234   1.414       .  A
C230        C231   1.406       .  A
C230       Br242   1.932       .  S
C231        C232   1.406       .  A
C231       Br246   1.929       .  S
C232        C235   1.484       .  S
C232        C233   1.409       .  A
C233        C234   1.409       .  A
C233       Br241   1.933       .  S
C234       Br245   1.925       .  S
C235        C236   1.400       .  A
C235        C240   1.407       .  A
C236        C237   1.407       .  A
C236       Br247   1.937       .  S
C237        C238   1.431       .  A
C237       Br243   1.935       .  S
C238        C239   1.418       .  A
C239        C240   1.411       .  A
C239       Br248   1.927       .  S
C240       Br244   1.931       .  S
C249        C250   1.425       .  A
C249        C254   1.428       .  A
C250        C251   1.414       .  A
C250       Br262   1.935       .  S
C251        C252   1.408       .  A
C251       Br266   1.933       .  S
C252        C583   1.494       .  S
C252        C253   1.405       .  A
C253        C254   1.410       .  A
C253       Br589   1.933       .  S
C254       Br265   1.938   1_545  S
C255        C580   1.494   1_455  S
C255        C256   1.410       .  A
C255        C260   1.404   1_455  A
C256        C257   1.415       .  A
C256       Br267   1.928       .  S
C257        C258   1.421       .  A
C257       Br263   1.931       .  S
C258        C259   1.427       .  A
C259        C260   1.408   1_455  A
C259       Br268   1.938       .  S
C260       Br592   1.935       .  S
Br261       C581   1.933   1_455  S
Br264       C588   1.935       .  S
C269        C270   1.423       .  A
C269        C274   1.418       .  A
C270        C271   1.411       .  A
C270       Br282   1.935       .  S
C271        C272   1.408       .  A
C271       Br286   1.932       .  S
C272        C603   1.494       .  S
C272        C273   1.409       .  A
C273        C274   1.412       .  A
C273       Br609   1.930       .  S
C274       Br285   1.930       .  S
C275        C600   1.494       .  S
C275        C276   1.410       .  A
C275        C280   1.402       .  A
C276        C277   1.416       .  A
C276       Br615   1.928       .  S
C277        C278   1.421       .  A
C277       Br283   1.931       .  S
C278        C279   1.433       .  A
C279        C280   1.409       .  A
C279       Br288   1.940       .  S
C280       Br284   1.936       .  S
Br281       C601   1.930       .  S
Br287       C604   1.928       .  S
C289        C290   1.418       .  A
C289        C294   1.417       .  A
C290        C291   1.408       .  A
C290       Br302   1.934       .  S
C291        C292   1.407       .  A
C291       Br306   1.931       .  S
C292        C295   1.492       .  S
C292        C293   1.410       .  A
C293        C294   1.414       .  A
C293       Br301   1.930       .  S
C294       Br305   1.930       .  S
C295        C296   1.412       .  A
C295        C300   1.405       .  A
C296        C297   1.415       .  A
C296       Br307   1.928       .  S
C297        C298   1.412       .  A
C297       Br303   1.928       .  S
C298        C299   1.418       .  A
C299        C300   1.406       .  A
C299       Br308   1.930       .  S
C300       Br304   1.932       .  S
C309        C310   1.428       .  A
C309        C314   1.418       .  A
C310        C311   1.398       .  A
C310       Br322   1.938       .  S
C311        C312   1.401       .  A
C311       Br326   1.938       .  S
C312        C643   1.493       .  S
C312        C641   1.415       .  A
C313        C640   1.415   1_455  A
C313        C642   1.419   1_455  A
C313       Br321   1.928       .  S
C314        C641   1.419       .  A
C314       Br653   1.930       .  S
C315        C640   1.493   1_455  S
C315        C316   1.410       .  A
C315        C320   1.414       .  A
C316        C317   1.410       .  A
C316       Br327   1.931       .  S
C317        C318   1.416       .  A
C317       Br323   1.930       .  S
C318        C319   1.407       .  A
C319        C320   1.407       .  A
C319       Br328   1.923   1_455  S
C320       Br652   1.932   1_455  S
Br324       C648   1.932       .  S
Br325       C642   1.930   1_455  S
O329        C344   1.272       .  A
O329       Al337   1.968       .  S
C330        O340   1.267       .  A
C330        O331   1.252       .  A
C330        C537   1.488       .  S
O331       Al333   1.866       .  S
O332        C334   1.275       .  A
O332       Al333   1.974       .  S
Al333       O341   1.971       .  S
Al333       O343   1.880       .  S
Al333       O342   1.769       .  S
C334        O347   1.256       .  A
C334        C586   1.505       .  S
O335        C345   1.274       .  A
O335       Al337   1.975       .  S
O336        C349   1.268       .  A
O336       Al346   1.941       .  S
Al337       O350   1.898       .  S
Al337       O347   1.860       .  S
Al337       O342   1.778       .  S
O338        C345   1.252       .  A
O338       Al346   1.859       .  S
O339        C348   1.255       .  A
O339       Al346   1.870       .  S
O340       Al346   1.944       .  S
O341        C348   1.274       .  A
O342       Al346   1.766       .  S
O343        C344   1.254       .  A
C344        C566   1.501       .  S
C345        C646   1.485       .  S
C348        C626   1.488       .  S
C349        O350   1.264       .  A
C349        C597   1.504       .  S
O351        C366   1.254       .  A
O351       Al359   1.885       .  S
C352        O362   1.259       .  A
C352        O353   1.273       .  A
C352        C557   1.481   1_556  S
O353       Al355   1.962       .  S
O354        C356   1.249       .  A
O354       Al355   1.846       .  S
Al355       O363   1.875       .  S
Al355       O365   1.969       .  S
Al355       O364   1.758       .  S
C356        O369   1.269       .  A
C356        C486   1.473       .  S
O357        C367   1.257       .  A
O357       Al359   1.892       .  S
O358        C371   1.261       .  A
O358       Al368   1.879       .  S
Al359       O372   1.951       .  S
Al359       O369   1.972       .  S
Al359       O364   1.761       .  S
O360        C367   1.277       .  A
O360       Al368   1.988       .  S
O361        C370   1.276       .  A
O361       Al368   1.989       .  S
O362       Al368   1.871       .  S
O363        C370   1.257       .  A
O364       Al368   1.767       .  S
O365        C366   1.272       .  A
C366        C506   1.504   1_545  S
C367        C526   1.515       .  S
C370        C457   1.495       .  S
C371        O372   1.272       .  A
C371        C546   1.471       .  S
O373        C388   1.256       .  A
O373       Al381   1.874       .  S
C374        O384   1.254       .  A
C374        O375   1.270       .  A
C374        C437   1.508       .  S
O375       Al377   1.944       .  S
O376        C378   1.245       .  A
O376       Al377   1.844       .  S
Al377       O385   1.868       .  S
Al377       O387   1.961       .  S
Al377       O386   1.766       .  S
C378        O391   1.272       .  A
C378        C637   1.505       .  S
O379        C389   1.259       .  A
O379       Al381   1.883       .  S
O380        C393   1.260       .  A
O380       Al390   1.871       .  S
Al381       O394   1.956       .  S
Al381       O391   1.981       .  S
Al381       O386   1.780       .  S
O382        C389   1.268       .  A
O382       Al390   1.944       .  S
O383        C392   1.270       .  A
O383       Al390   1.960       .  S
O384       Al390   1.880       .  S
O385        C392   1.256       .  A
O386       Al390   1.778       .  S
O387        C388   1.271       .  A
C388        C517   1.497       .  S
C389        C497   1.487       .  S
C392        C617   1.493       .  S
C393        O394   1.272       .  A
C393        C417   1.498       .  S
O395        C410   1.267       .  A
O395       Al403   1.938       .  S
C396        O406   1.266       .  A
C396        O397   1.248       .  A
C396        C426   1.506   1_554  S
O397       Al399   1.860       .  S
O398        C400   1.274       .  A
O398       Al399   1.972       .  S
Al399       O407   1.985       .  S
Al399       O409   1.879       .  S
Al399       O408   1.770       .  S
C400        O413   1.251       .  A
C400        C606   1.512       .  S
O401        C411   1.269       .  A
O401       Al403   1.953       .  S
O402        C415   1.270       .  A
O402       Al412   1.957       .  S
Al403       O416   1.878       .  S
Al403       O413   1.852       .  S
Al403       O408   1.776       .  S
O404        C411   1.253       .  A
O404       Al412   1.838       .  S
O405        C414   1.256       .  A
O405       Al412   1.854       .  S
O406       Al412   1.959       .  S
O407        C414   1.280       .  A
O408       Al412   1.781       .  S
O409        C410   1.256       .  A
C410        C446   1.488       .  S
C411        C477   1.468       .  S
C414        C466   1.495       .  S
C415        O416   1.256       .  A
C415        C577   1.510   1_565  S
C417        C418   1.419       .  A
C417        C422   1.418       .  A
C418        C419   1.415       .  A
C418       Br430   1.934       .  S
C419        C420   1.412       .  A
C419       Br434   1.926       .  S
C420        C423   1.495       .  S
C420        C421   1.407       .  A
C421        C422   1.405       .  A
C421       Br429   1.932       .  S
C422       Br433   1.934       .  S
C423        C424   1.406       .  A
C423        C428   1.411       .  A
C424        C425   1.407       .  A
C424       Br435   1.933       .  S
C425        C426   1.424       .  A
C425       Br431   1.936       .  S
C426        C427   1.420       .  A
C427        C428   1.416       .  A
C427       Br436   1.930       .  S
C428       Br432   1.930       .  S
C437        C438   1.430       .  A
C437        C442   1.421       .  A
C438        C439   1.410       .  A
C438       Br450   1.936       .  S
C439        C440   1.403       .  A
C439       Br454   1.935       .  S
C440        C443   1.492       .  S
C440        C441   1.408       .  A
C441        C442   1.414       .  A
C441       Br449   1.930       .  S
C442       Br453   1.934       .  S
C443        C444   1.409       .  A
C443        C448   1.409       .  A
C444        C445   1.411       .  A
C444       Br455   1.929       .  S
C445        C446   1.416       .  A
C445       Br451   1.932       .  S
C446        C447   1.416       .  A
C447        C448   1.410       .  A
C447       Br456   1.933       .  S
C448       Br452   1.931       .  S
C457        C458   1.411       .  A
C457        C462   1.420       .  A
C458        C459   1.418       .  A
C458       Br470   1.926       .  S
C459        C460   1.414       .  A
C459       Br474   1.926       .  S
C460        C463   1.498   1_546  S
C460        C461   1.405   1_556  A
C461        C462   1.408   1_554  A
C461       Br469   1.934   1_545  S
C462       Br473   1.930   1_556  S
C463        C464   1.412   1_554  A
C463        C468   1.407   1_565  A
C464        C465   1.415   1_556  A
C464       Br475   1.929       .  S
C465        C466   1.414       .  A
C465       Br471   1.929   1_554  S
C466        C467   1.421       .  A
C467        C468   1.411   1_565  A
C467       Br476   1.935   1_565  S
C468       Br472   1.931       .  S
C477        C478   1.410       .  A
C477        C482   1.408       .  A
C478        C479   1.398   1_554  A
C478       Br490   1.928       .  S
C479        C480   1.405   1_556  A
C479       Br494   1.932       .  S
C480        C481   1.410   1_655  A
C481        C482   1.406   1_455  A
C482       Br493   1.924   1_655  S
C483        C484   1.400       .  A
C484        C485   1.395       .  A
C484       Br495   1.939   1_556  S
C485        C486   1.418   1_565  A
C485       Br491   1.925       .  S
C486        C487   1.407       .  A
C488       Br492   1.926       .  S
C497        C498   1.416       .  A
C497        C502   1.415       .  A
C498        C499   1.411       .  A
C498       Br510   1.930       .  S
C499        C500   1.409   1_655  A
C499       Br514   1.932       .  S
C501       Br509   1.930       .  S
C502       Br513   1.934       .  S
C503        C504   1.404       .  A
C503        C508   1.409       .  A
C504        C505   1.409       .  A
C504       Br515   1.937       .  S
C505        C506   1.430       .  A
C505       Br511   1.937   1_565  S
C506        C507   1.416       .  A
C507        C508   1.412       .  A
C507       Br516   1.931       .  S
C517        C518   1.417       .  A
C517        C522   1.419       .  A
C518        C519   1.413       .  A
C518       Br530   1.932       .  S
C519        C520   1.412       .  A
C520        C521   1.410       .  A
C521        C522   1.413       .  A
C521       Br529   1.929       .  S
C522       Br533   1.934       .  S
C523        C524   1.404       .  A
C523        C528   1.410       .  A
C524        C525   1.412       .  A
C525        C526   1.432       .  A
C525       Br531   1.936       .  S
C526        C527   1.422       .  A
C527        C528   1.418       .  A
C527       Br536   1.931       .  S
C528       Br532   1.930       .  S
C537        C538   1.422       .  A
C537        C542   1.413       .  A
C538        C539   1.404       .  A
C538       Br550   1.931       .  S
C539        C540   1.404       .  A
C539       Br554   1.936       .  S
C540        C543   1.479       .  S
C540        C541   1.406       .  A
C541        C542   1.408       .  A
C541       Br549   1.929       .  S
C542       Br553   1.923       .  S
C543        C544   1.407       .  A
C543        C548   1.409       .  A
C544        C545   1.403       .  A
C544       Br555   1.932       .  S
C545        C546   1.410       .  A
C545       Br551   1.925       .  S
C546        C547   1.409       .  A
C547        C548   1.406       .  A
C547       Br556   1.930       .  S
C548       Br552   1.929       .  S
C557        C558   1.414       .  A
C557        C562   1.414       .  A
C558        C559   1.406       .  A
C558       Br570   1.932       .  S
C559        C560   1.406       .  A
C559       Br574   1.929       .  S
C560        C563   1.484       .  S
C560        C561   1.409       .  A
C561        C562   1.409       .  A
C561       Br569   1.933       .  S
C562       Br573   1.925       .  S
C563        C564   1.400       .  A
C563        C568   1.407       .  A
C564        C565   1.407       .  A
C564       Br575   1.937       .  S
C565        C566   1.431       .  A
C565       Br571   1.935       .  S
C566        C567   1.418       .  A
C567        C568   1.411       .  A
C567       Br576   1.927       .  S
C568       Br572   1.931       .  S
C577        C578   1.425       .  A
C577        C582   1.428       .  A
C578        C579   1.414       .  A
C578       Br590   1.935       .  S
C579        C580   1.408       .  A
C579       Br594   1.933       .  S
C580        C581   1.405       .  A
C581        C582   1.410       .  A
C582       Br593   1.938   1_545  S
C583        C584   1.410       .  A
C583        C588   1.404       .  A
C584        C585   1.415       .  A
C584       Br595   1.928       .  S
C585        C586   1.421       .  A
C585       Br591   1.931       .  S
C586        C587   1.427       .  A
C587        C588   1.408       .  A
C587       Br596   1.938       .  S
C597        C598   1.423       .  A
C597        C602   1.418       .  A
C598        C599   1.411       .  A
C598       Br610   1.935       .  S
C599        C600   1.408       .  A
C599       Br614   1.932       .  S
C600        C601   1.409       .  A
C601        C602   1.412       .  A
C602       Br613   1.930       .  S
C603        C604   1.410   1_455  A
C603        C608   1.402       .  A
C604        C605   1.416       .  A
C605        C606   1.421       .  A
C605       Br611   1.931       .  S
C606        C607   1.433       .  A
C607        C608   1.409   1_655  A
C607       Br616   1.940   1_655  S
C608       Br612   1.936       .  S
C617        C618   1.418       .  A
C617        C622   1.417       .  A
C618        C619   1.408       .  A
C618       Br630   1.934       .  S
C619        C620   1.407       .  A
C619       Br634   1.931       .  S
C620        C623   1.492       .  S
C620        C621   1.410       .  A
C621        C622   1.414       .  A
C621       Br629   1.930       .  S
C622       Br633   1.930       .  S
C623        C624   1.412       .  A
C623        C628   1.405       .  A
C624        C625   1.415       .  A
C624       Br635   1.928       .  S
C625        C626   1.412       .  A
C625       Br631   1.928       .  S
C626        C627   1.418       .  A
C627        C628   1.406       .  A
C627       Br636   1.930       .  S
C628       Br632   1.932       .  S
C637        C638   1.428       .  A
C637        C642   1.418       .  A
C638        C639   1.398       .  A
C638       Br650   1.938       .  S
C639        C640   1.401       .  A
C639       Br654   1.938       .  S
C641       Br649   1.928       .  S
C643        C644   1.410       .  A
C643        C648   1.414       .  A
C644        C645   1.410       .  A
C644       Br655   1.931       .  S
C645        C646   1.416       .  A
C645       Br651   1.930       .  S
C646        C647   1.407       .  A
C647        C648   1.407       .  A
C647       Br656   1.923       .  S
