geometry optimzed in LAMMPS
_audit_creation_date              2020-12-01 
_audit_creation_method            'lammps2cif' 
_symmetry_space_group_name_H-M    'P1' 
_symmetry_Int_Tables_number       1 
_symmetry_cell_setting            triclinic 
loop_ 
_symmetry_equiv_pos_as_xyz 
  x,y,z 
_cell_length_a                    41.52679489 
_cell_length_b                    25.097768524752436 
_cell_length_c                    85.29180810345989 
_cell_angle_alpha                 89.51063033333826 
_cell_angle_beta                  89.06558821499642 
_cell_angle_gamma                 90.1655810814849 
loop_ 
_atom_site_label 
_atom_site_type_symbol 
_atom_site_fract_x 
_atom_site_fract_y 
_atom_site_fract_z 
_atom_site_charge 
O1          O  0.79581757  0.98993939  0.18075877    -0.71400
O2          O  0.70766796  0.03553239  0.18422118    -0.71600
O3          O  0.75267609  0.00296780  0.20420802    -0.71500
O4          O  0.75119893  0.02692657  0.16092799    -0.71500
O5          O  0.73378044  0.44682623  0.15686474    -0.71500
O6          O  0.73754595  0.42036774  0.20116418    -0.71500
O7          O  0.69269649  0.95349486  0.18141842    -0.71400
O8          O  0.77865168  0.40896681  0.17672257    -0.71600
V9          V  0.75162719  0.01222305  0.18244254     1.35200
V10         V  0.73617362  0.43385989  0.17905121     1.35200
C11         C  0.80204322  0.44041475  0.17819372     0.77800
C12         C  0.68506668  0.00134422  0.18358595     0.77900
C13         C  0.74484926  0.45828304  0.21024311     0.77700
C14         C  0.74086377  0.99291084  0.15153997     0.77700
O15         O  0.67282999  0.41127299  0.30501927    -0.71400
O16         O  0.76124091  0.36472719  0.30335005    -0.71600
O17         O  0.71477714  0.36965844  0.32554643    -0.71500
O18         O  0.71865058  0.40116263  0.28282227    -0.71500
O19         O  0.73510750  0.98248808  0.28728380    -0.71500
O20         O  0.73067353  0.44916015  0.33141574    -0.71500
O21         O  0.77567556  0.44573334  0.30856386    -0.71400
O22         O  0.69011860  0.99122587  0.31015101    -0.71600
V23         V  0.71708532  0.38826694  0.30433858     1.35200
V24         V  0.73237478  0.46533810  0.30929679     1.35200
C25         C  0.66683856  0.96061053  0.30757512     0.77800
C26         C  0.78355173  0.39882775  0.30532569     0.77900
C27         C  0.72272202  0.40226594  0.33584415     0.77700
C28         C  0.72830513  0.44526584  0.27753591     0.77700
O29         O  0.99988390  0.34692118  0.15409616    -0.71400
O30         O  0.99401749  0.36883191  0.19855816    -0.71600
O31         O  0.04016171  0.33906418  0.17841815    -0.71500
O32         O  0.95403813  0.38147215  0.17443461    -0.71500
O33         O  0.93740305  0.30068925  0.17873562    -0.71500
O34         O  0.02580175  0.25598123  0.18061614    -0.71500
O35         O  0.98032050  0.28588154  0.20133617    -0.71400
O36         O  0.98215959  0.26653971  0.15797575    -0.71600
V37         V  0.99668915  0.35753533  0.17637889     1.35200
V38         V  0.98170704  0.27884612  0.17956391     1.35200
C39         C  0.99183092  0.30202646  0.14853099     0.77800
C40         C  0.98638038  0.32996147  0.20751012     0.77900
C41         C  0.04793135  0.29111539  0.18026017     0.77700
C42         C  0.93085490  0.34966572  0.17656876     0.77700
O43         O  0.03236492  0.36216775  0.30392811    -0.71400
O44         O  0.94256294  0.39957817  0.30222317    -0.71600
O45         O  0.98667303  0.39320077  0.32467806    -0.71500
O46         O  0.98870814  0.37375854  0.28147589    -0.71500
O47         O  0.97595703  0.29028895  0.28415266    -0.71500
O48         O  0.97313252  0.31086600  0.32880183    -0.71500
O49         O  0.93076616  0.31601418  0.30548820    -0.71400
O50         O  0.01790832  0.27994530  0.30747683    -0.71600
V51         V  0.98737517  0.38055344  0.30317461     1.35200
V52         V  0.97475354  0.30083274  0.30644830     1.35200
C53         C  0.04020915  0.31349531  0.30566154     0.77800
C54         C  0.92132401  0.36303161  0.30349368     0.77900
C55         C  0.97910057  0.35691972  0.33422875     0.77700
C56         C  0.98262357  0.32986653  0.27525313     0.77700
O57         O  0.43753113  0.06046226  0.17908312    -0.71400
O58         O  0.52541973  0.01308963  0.18235479    -0.71600
O59         O  0.47930738  0.04498634  0.20233565    -0.71500
O60         O  0.48329496  0.02386884  0.15895545    -0.71500
O61         O  0.49836733  0.10576944  0.15492368    -0.71500
O62         O  0.49742755  0.12560498  0.19960258    -0.71500
O63         O  0.54082423  0.09452742  0.17806984    -0.71400
O64         O  0.45534487  0.14141764  0.17655084    -0.71600
V65         V  0.48161196  0.03717417  0.18056258     1.35200
V66         V  0.49759640  0.11528381  0.17730466     1.35200
C67         C  0.43177277  0.11013492  0.17783588     0.77800
C68         C  0.54820023  0.04687999  0.18088266     0.77900
C69         C  0.48845112  0.08749384  0.20856989     0.77700
C70         C  0.49188585  0.05999145  0.14947495     0.77700
O71         O  0.53468371  0.10739100  0.30614703    -0.71400
O72         O  0.44787029  0.15939082  0.30405237    -0.71600
O73         O  0.49024402  0.14190211  0.32702584    -0.71500
O74         O  0.49293117  0.12912424  0.28329516    -0.71500
O75         O  0.47675456  0.04699284  0.28494814    -0.71500
O76         O  0.47031418  0.06237695  0.32958992    -0.71500
O77         O  0.43119057  0.07740498  0.30534444    -0.71400
O78         O  0.51562077  0.02741985  0.30919247    -0.71600
V79         V  0.49116112  0.13289297  0.30520841     1.35200
V80         V  0.47389135  0.05507938  0.30726159     1.35200
C81         C  0.53970338  0.05774907  0.30796765     0.77800
C82         C  0.42477186  0.12603730  0.30386986     0.77900
C83         C  0.47920614  0.10563384  0.33586699     0.77700
C84         C  0.48527891  0.08676756  0.27652219     0.77700
O85         O  0.29581266  0.24714452  0.17961591    -0.71400
O86         O  0.20684885  0.29179353  0.18096960    -0.71600
O87         O  0.25026801  0.26057914  0.20209674    -0.71500
O88         O  0.25295133  0.28337074  0.15885916    -0.71500
O89         O  0.23680655  0.20282208  0.15451797    -0.71500
O90         O  0.23544772  0.17845824  0.19912851    -0.71500
O91         O  0.19313085  0.20923381  0.17756785    -0.71400
O92         O  0.27920337  0.16647618  0.17579964    -0.71600
V93         V  0.25127004  0.26910592  0.18033911     1.35200
V94         V  0.23660033  0.19073859  0.17683927     1.35200
C95         C  0.30235248  0.19826903  0.17719196     0.77800
C96         C  0.18489828  0.25696118  0.17910019     0.77900
C97         C  0.24188322  0.21692569  0.20819862     0.77700
C98         C  0.24438331  0.24880878  0.14921920     0.77700
O99         O  0.17814262  0.17998588  0.30453481    -0.71400
O100        O  0.26736220  0.13899663  0.30329822    -0.71600
O101        O  0.22154049  0.14517055  0.32545856    -0.71500
O102        O  0.22374277  0.16852098  0.28220953    -0.71500
O103        O  0.23875823  0.25052757  0.28519372    -0.71500
O104        O  0.23429026  0.22770577  0.32985990    -0.71500
O105        O  0.28005195  0.22148032  0.30742562    -0.71400
O106        O  0.19332634  0.26172621  0.30780187    -0.71600
V107        V  0.22285141  0.15982849  0.30395924     1.35200
V108        V  0.23626105  0.23884224  0.30750461     1.35200
C109        C  0.17075014  0.22880863  0.30628946     0.77800
C110        C  0.28893023  0.17424791  0.30538697     0.77900
C111        C  0.22796572  0.18110722  0.33504205     0.77700
C112        C  0.23239065  0.21204896  0.27611552     0.77700
O113        O  0.18012470  0.42413611  0.80550016    -0.71400
O114        O  0.26721194  0.37387327  0.80172939    -0.71600
O115        O  0.22516629  0.38818646  0.82532995    -0.71500
O116        O  0.22132204  0.40511031  0.78197996    -0.71500
O117        O  0.23846768  0.48675550  0.78328505    -0.71500
O118        O  0.24343520  0.46847655  0.82804867    -0.71500
O119        O  0.28352755  0.45568364  0.80357128    -0.71400
O120        O  0.19874224  0.50451141  0.80779271    -0.71600
V121        V  0.22376376  0.39945746  0.80370248     1.35200
V122        V  0.24064627  0.47737425  0.80566108     1.35200
C123        C  0.17488755  0.47377271  0.80699358     0.77800
C124        C  0.29030569  0.40720882  0.80211199     0.77900
C125        C  0.23563323  0.42375025  0.83418145     0.77700
C126        C  0.22866905  0.44792195  0.77512328     0.77700
O127        O  0.27882378  0.45161708  0.67764906    -0.71400
O128        O  0.19035143  0.49653509  0.68062747    -0.71600
O129        O  0.23687064  0.47154742  0.70087236    -0.71500
O130        O  0.23317500  0.48149962  0.65733528    -0.71500
O131        O  0.21625737  0.39994100  0.65562418    -0.71500
O132        O  0.22203513  0.38851969  0.70051108    -0.71500
O133        O  0.17620929  0.41344851  0.68002435    -0.71400
O134        O  0.26197208  0.37007478  0.67603362    -0.71600
V135        V  0.23454386  0.47368115  0.67907912     1.35200
V136        V  0.21952422  0.39450757  0.67806649     1.35200
C137        C  0.28519877  0.40222687  0.67647021     0.77800
C138        C  0.16809579  0.46154676  0.68070463     0.77900
C139        C  0.23047591  0.42927667  0.70822256     0.77700
C140        C  0.22325017  0.44413995  0.64897807     0.77700
O141        O  0.53756135  0.35246793  0.80366081    -0.71400
O142        O  0.44908516  0.39412509  0.80029758    -0.71600
O143        O  0.49205537  0.39194010  0.82338125    -0.71500
O144        O  0.49488478  0.35895076  0.78060510    -0.71500
O145        O  0.47855599  0.27816186  0.78549983    -0.71500
O146        O  0.47815435  0.31090164  0.82935634    -0.71500
O147        O  0.43498126  0.31323366  0.80627622    -0.71400
O148        O  0.52159853  0.27166520  0.80851417    -0.71600
V149        V  0.49317124  0.37280309  0.80213661     1.35200
V150        V  0.47869567  0.29503245  0.80736845     1.35200
C151        C  0.54450722  0.30386493  0.80615553     0.77800
C152        C  0.42687260  0.35982993  0.80252498     0.77900
C153        C  0.48429700  0.35809827  0.83374020     0.77700
C154        C  0.48691653  0.31393145  0.77561235     0.77700
O155        O  0.42045374  0.26316785  0.68151897    -0.71400
O156        O  0.50889014  0.21826517  0.68302174    -0.71600
O157        O  0.46490685  0.25395515  0.70383708    -0.71500
O158        O  0.46378570  0.22311414  0.66103872    -0.71500
O159        O  0.47972303  0.30319856  0.65505724    -0.71500
O160        O  0.48058064  0.33512676  0.69899928    -0.71500
O161        O  0.52315597  0.29974147  0.67777575    -0.71400
O162        O  0.43718363  0.34312477  0.67608798    -0.71600
V163        V  0.46475119  0.24120566  0.68226136     1.35200
V164        V  0.47975382  0.31877128  0.67707085     1.35200
C165        C  0.41397799  0.31174861  0.67862423     0.77800
C166        C  0.53111987  0.25230316  0.68032723     0.77900
C167        C  0.47295001  0.29885504  0.70887501     0.77700
C168        C  0.47205740  0.25658171  0.65069439     0.77700
O169        O  0.77729380  0.19277389  0.67834093    -0.71400
O170        O  0.68937741  0.23970466  0.68101388    -0.71600
O171        O  0.73529275  0.21699748  0.70146730    -0.71500
O172        O  0.73146300  0.22028387  0.65786104    -0.71500
O173        O  0.71354359  0.13906123  0.65730649    -0.71500
O174        O  0.72062693  0.13384253  0.70215913    -0.71500
O175        O  0.67435402  0.15678772  0.68189479    -0.71400
O176        O  0.75995288  0.11128969  0.67769522    -0.71600
V177        V  0.73317978  0.21574576  0.67965267     1.35200
V178        V  0.71758643  0.13669330  0.67973771     1.35200
C179        C  0.78336350  0.14317949  0.67750219     0.77800
C180        C  0.66694090  0.20524433  0.68220381     0.77900
C181        C  0.72785417  0.17628444  0.70935366     0.77700
C182        C  0.72046355  0.18224567  0.65010416     0.77700
O183        O  0.68182122  0.16856770  0.80576407    -0.71400
O184        O  0.77084068  0.12695256  0.80419392    -0.71600
O185        O  0.72625421  0.13917012  0.82679113    -0.71500
O186        O  0.72633574  0.15127287  0.78329007    -0.71500
O187        O  0.73958351  0.23494011  0.78425065    -0.71500
O188        O  0.74208563  0.22093710  0.82920536    -0.71500
O189        O  0.78406709  0.21059247  0.80524311    -0.71400
O190        O  0.69737275  0.25049836  0.80817823    -0.71600
V191        V  0.72646536  0.14818345  0.80508158     1.35200
V192        V  0.74033655  0.22778215  0.80672262     1.35200
C193        C  0.67462080  0.21757344  0.80715299     0.77800
C194        C  0.79253736  0.16284393  0.80399812     0.77900
C195        C  0.73538362  0.17606832  0.83552845     0.77700
C196        C  0.73397091  0.19353830  0.77622478     0.77700
O197        O  0.91979067  0.00924980  0.68264184    -0.71400
O198        O  0.00876045  0.96745173  0.68346394    -0.71600
O199        O  0.96561208  0.00336697  0.70436229    -0.71500
O200        O  0.96261663  0.96895781  0.66179792    -0.71500
O201        O  0.97749467  0.04886269  0.65510887    -0.71500
O202        O  0.98005923  0.08445715  0.69875898    -0.71500
O203        O  0.02219917  0.04877701  0.67742582    -0.71400
O204        O  0.93542171  0.08933365  0.67636394    -0.71600
V205        V  0.96441067  0.98881872  0.68290932     1.35200
V206        V  0.97838459  0.06632779  0.67698739     1.35200
C207        C  0.91281133  0.05761066  0.67973903     0.77800
C208        C  0.03063460  0.00203825  0.68072543     0.77900
C209        C  0.97377624  0.04872977  0.70902048     0.77700
C210        C  0.97016529  0.00164483  0.65112204     0.77700
O211        O  0.04010172  0.11540913  0.80197754    -0.71400
O212        O  0.95094698  0.15837892  0.80212907    -0.71600
O213        O  0.99828566  0.15702277  0.82301809    -0.71500
O214        O  0.99309015  0.12181772  0.78068607    -0.71500
O215        O  0.97969186  0.04050734  0.78654329    -0.71500
O216        O  0.98283922  0.07774408  0.83010103    -0.71500
O217        O  0.93808608  0.07679012  0.80796258    -0.71400
O218        O  0.02425479  0.03626601  0.80890091    -0.71600
V219        V  0.99544596  0.13661476  0.80206901     1.35200
V220        V  0.98161319  0.05937263  0.80827120     1.35200
C221        C  0.04705789  0.06734484  0.80541564     0.77800
C222        C  0.92930396  0.12363914  0.80525839     0.77900
C223        C  0.99079183  0.12494503  0.83383587     0.77700
C224        C  0.98506432  0.07624854  0.77616756     0.77700
O225        O  0.77429833  0.24156225  0.55539810    -0.71400
O226        O  0.68720130  0.19134389  0.55101213    -0.71600
O227        O  0.73406098  0.22711955  0.53154153    -0.71500
O228        O  0.72815258  0.20139389  0.57480320    -0.71500
O229        O  0.71081280  0.28157118  0.57882478    -0.71500
O230        O  0.71584126  0.30750695  0.53453775    -0.71500
O231        O  0.67095179  0.27237710  0.55473200    -0.71400
O232        O  0.75547429  0.32123018  0.55871471    -0.71600
V233        V  0.73065942  0.21688020  0.55327532     1.35200
V234        V  0.71370383  0.29410224  0.55665662     1.35200
C235        C  0.77942874  0.29091874  0.55764959     0.77800
C236        C  0.66417252  0.22452029  0.55210412     0.77900
C237        C  0.72572907  0.27071776  0.52554788     0.77700
C238        C  0.71817893  0.23599310  0.58426690     0.77700
O239        O  0.66919634  0.31918758  0.43069999    -0.71400
O240        O  0.75678918  0.36663163  0.43408959    -0.71600
O241        O  0.71357014  0.36330613  0.41109054    -0.71500
O242        O  0.71161751  0.32682601  0.45367178    -0.71500
O243        O  0.72857723  0.24686491  0.44866449    -0.71500
O244        O  0.73042495  0.28439885  0.40492276    -0.71500
O245        O  0.77227474  0.28667996  0.42834589    -0.71400
O246        O  0.68686250  0.24036822  0.42508216    -0.71600
V247        V  0.71307735  0.34245626  0.43223714     1.35200
V248        V  0.72913819  0.26608694  0.42682149     1.35200
C249        C  0.66333652  0.27058454  0.42767851     0.77800
C250        C  0.77957401  0.33371900  0.43181453     0.77900
C251        C  0.72312163  0.33154119  0.40072867     0.77700
C252        C  0.71947579  0.28146316  0.45856544     0.77700
O253        O  0.02554878  0.40440252  0.42871163    -0.71400
O254        O  0.93900453  0.35237160  0.43338760    -0.71600
O255        O  0.98011110  0.36762995  0.40939071    -0.71500
O256        O  0.98485172  0.38501480  0.45277577    -0.71500
O257        O  0.96406264  0.46383903  0.45105725    -0.71500
O258        O  0.96466202  0.44954176  0.40630813    -0.71500
O259        O  0.92191996  0.43296607  0.42978208    -0.71400
O260        O  0.00676198  0.48489033  0.42770424    -0.71600
V261        V  0.98212601  0.37896208  0.43099710     1.35200
V262        V  0.96480864  0.45639945  0.42872134     1.35200
C263        C  0.03071025  0.45428277  0.42773954     0.77800
C264        C  0.91561289  0.38461259  0.43238231     0.77900
C265        C  0.97143350  0.40452789  0.40039069     0.77700
C266        C  0.97407673  0.42568546  0.45954013     0.77700
O267        O  0.91219023  0.43902628  0.55764255    -0.71400
O268        O  0.00006500  0.48639582  0.55302020    -0.71600
O269        O  0.95345644  0.45591335  0.53378622    -0.71500
O270        O  0.95830363  0.47442214  0.57705150    -0.71500
O271        O  0.97499822  0.39328289  0.58037954    -0.71500
O272        O  0.96999890  0.37442636  0.53579061    -0.71500
O273        O  0.01507153  0.40432393  0.55566457    -0.71400
O274        O  0.92972415  0.35841196  0.56047371    -0.71600
V275        V  0.95621201  0.46233079  0.55548858     1.35200
V276        V  0.97197225  0.38409099  0.55806819     1.35200
C277        C  0.90619251  0.38962747  0.55953201     0.77800
C278        C  0.02263026  0.45224555  0.55329167     0.77900
C279        C  0.96162745  0.41344164  0.52717962     0.77700
C280        C  0.96857412  0.43877167  0.58607759     0.77700
O281        O  0.16635396  0.09482436  0.42892229    -0.71400
O282        O  0.25577166  0.13439392  0.43151839    -0.71600
O283        O  0.21147852  0.13464053  0.40889711    -0.71500
O284        O  0.21000178  0.09987186  0.45149096    -0.71500
O285        O  0.22348186  0.01822658  0.44674567    -0.71500
O286        O  0.22665812  0.05470178  0.40279414    -0.71500
O287        O  0.26833985  0.05271883  0.42624291    -0.71400
O288        O  0.18173222  0.01496775  0.42299796    -0.71600
V289        V  0.21113282  0.11439201  0.43004955     1.35200
V290        V  0.22463989  0.03665688  0.42476596     1.38400
C291        C  0.15909788  0.04682472  0.42577773     0.77800
C292        C  0.27733571  0.09906185  0.42944983     0.77900
C293        C  0.22012652  0.10216061  0.39855511     0.77700
C294        C  0.21662436  0.05430303  0.45664451     0.77700
O295        O  0.27063960  0.00018884  0.55411686    -0.71400
O296        O  0.18183333  0.46048387  0.54972556    -0.71600
O297        O  0.22964247  0.99212160  0.53023892    -0.71500
O298        O  0.22324483  0.96413635  0.57345922    -0.71500
O299        O  0.21097266  0.04644799  0.57799833    -0.71500
O300        O  0.21308485  0.07297477  0.53373979    -0.71500
O301        O  0.16852374  0.04176141  0.55485619    -0.71400
O302        O  0.25530899  0.08198918  0.55712235    -0.71600
V303        V  0.22615093  0.98072903  0.55197304     1.35200
V304        V  0.21233229  0.05926333  0.55584321     1.35200
C305        C  0.27790361  0.04880863  0.55627830     0.77800
C306        C  0.16001860  0.99487093  0.55188627     0.77900
C307        C  0.22171632  0.03628152  0.52441909     0.77700
C308        C  0.21600084  0.99968701  0.58319796     0.77700
O309        O  0.41645484  0.17951231  0.55770112    -0.71400
O310        O  0.50564688  0.21689856  0.55251464    -0.71600
O311        O  0.45834400  0.18518571  0.53392956    -0.71500
O312        O  0.46338575  0.21591025  0.57647027    -0.71500
O313        O  0.47597386  0.13429058  0.58199716    -0.71500
O314        O  0.47308206  0.10327900  0.53794201    -0.71500
O315        O  0.51824316  0.13515190  0.55791932    -0.71400
O316        O  0.43088121  0.09791314  0.56210023    -0.71600
V317        V  0.46119163  0.19775428  0.55531404     1.35200
V318        V  0.47419448  0.11913807  0.55995250     1.35200
C319        C  0.40860552  0.13111948  0.56015105     0.77800
C320        C  0.52720866  0.18162159  0.55431222     0.77900
C321        C  0.46487680  0.14014215  0.52851867     0.77700
C322        C  0.47111361  0.18175565  0.58656802     0.77700
O323        O  0.52638351  0.13493517  0.43179143    -0.71400
O324        O  0.43676232  0.09482900  0.43356924    -0.71600
O325        O  0.48087562  0.10971333  0.41077113    -0.71500
O326        O  0.48267737  0.11504076  0.45449778    -0.71500
O327        O  0.46822360  0.19817000  0.45420489    -0.71500
O328        O  0.46773605  0.19310496  0.40922160    -0.71500
O329        O  0.42458513  0.17861619  0.43246822    -0.71400
O330        O  0.51130817  0.21754379  0.43104297    -0.71600
V331        V  0.48148237  0.11522117  0.43260952     1.35200
V332        V  0.46835195  0.19527138  0.43173382     1.35200
C333        C  0.53374765  0.18422428  0.43156611     0.77800
C334        C  0.41535689  0.13102394  0.43336100     0.77900
C335        C  0.47344299  0.14916646  0.40243285     0.77700
C336        C  0.47546414  0.15640755  0.46189814     0.77700
O337        O  0.18071649  0.38035505  0.92854581    -0.71400
O338        O  0.27007881  0.41799753  0.93298237    -0.71600
O339        O  0.22953390  0.40940549  0.90910571    -0.71500
O340        O  0.22076181  0.39392585  0.95261780    -0.71500
O341        O  0.23697074  0.31187324  0.95137313    -0.71500
O342        O  0.24038305  0.32536148  0.90654296    -0.71500
O343        O  0.28215251  0.33480231  0.92989523    -0.71400
O344        O  0.19515116  0.29739560  0.92806124    -0.71600
V345        V  0.22545859  0.39885423  0.93077486     1.35200
V346        V  0.23827007  0.31890147  0.92899115     1.35200
C347        C  0.17297135  0.33133702  0.92781460     0.77800
C348        C  0.29140037  0.38170582  0.93200937     0.77900
C349        C  0.23628578  0.37101125  0.90031351     0.77700
C350        C  0.22868324  0.35176993  0.95955186     0.77700
O351        O  0.28634484  0.32638210  0.05517910    -0.71400
O352        O  0.19779236  0.28414027  0.05175817    -0.71600
O353        O  0.24425017  0.31870969  0.03203509    -0.71500
O354        O  0.24066173  0.28709618  0.07477740    -0.71500
O355        O  0.22873115  0.36907601  0.08026894    -0.71500
O356        O  0.22585587  0.39850648  0.03597031    -0.71500
O357        O  0.18404709  0.36450892  0.05797263    -0.71400
O358        O  0.27030487  0.40778896  0.05844187    -0.71600
V359        V  0.24199143  0.30564155  0.05354167     1.35200
V360        V  0.22757066  0.38350826  0.05810351     1.35200
C361        C  0.29315432  0.37529656  0.05714586     0.77800
C362        C  0.17572596  0.31808210  0.05447346     0.77900
C363        C  0.23496523  0.36243089  0.02652655     0.77700
C364        C  0.23477175  0.32185868  0.08489697     0.77700
O365        O  0.67991231  0.11727607  0.93111531    -0.71400
O366        O  0.76646574  0.16955912  0.93424600    -0.71600
O367        O  0.72477611  0.15664527  0.91094137    -0.71500
O368        O  0.72094015  0.13412247  0.95437977    -0.71500
O369        O  0.74058286  0.05449802  0.95180185    -0.71500
O370        O  0.74174752  0.07595606  0.90728193    -0.71500
O371        O  0.78352107  0.08897772  0.93042363    -0.71400
O372        O  0.69894127  0.03720715  0.92869535    -0.71600
V373        V  0.72331240  0.14283246  0.93258485     1.35200
V374        V  0.74076114  0.06567236  0.92957281     1.35200
C375        C  0.67498143  0.06749112  0.92986103     0.77800
C376        C  0.78977989  0.13710166  0.93296693     0.77900
C377        C  0.73401947  0.12106996  0.90162555     0.77700
C378        C  0.73041565  0.09157119  0.96061157     0.77700
O379        O  0.72906904  0.09803268  0.08097590    -0.71400
O380        O  0.73144368  0.12835737  0.03677825    -0.71600
O381        O  0.68733021  0.09246086  0.05730284    -0.71500
O382        O  0.77280105  0.13838566  0.06045555    -0.71500
O383        O  0.79049248  0.05832751  0.05670096    -0.71500
O384        O  0.70280644  0.01193022  0.05218400    -0.71500
O385        O  0.74959964  0.04832604  0.03303208    -0.71400
O386        O  0.74432796  0.01741387  0.07587931    -0.71600
V387        V  0.73054651  0.11278463  0.05884593     1.35200
V388        V  0.74651965  0.03553819  0.05457539     1.35200
C389        C  0.73587907  0.05137977  0.08582194     0.77800
C390        C  0.74105999  0.09237029  0.02743615     0.77900
C391        C  0.68011841  0.04545326  0.05378310     0.77700
C392        C  0.79635704  0.10740516  0.05905302     0.77700
O393        O  0.53982271  0.42838524  0.92839423    -0.71400
O394        O  0.45005672  0.38894382  0.93112754    -0.71600
O395        O  0.49503760  0.39397600  0.90825335    -0.71500
O396        O  0.49539724  0.41825866  0.95140061    -0.71500
O397        O  0.48257617  0.50121785  0.94794244    -0.71500
O398        O  0.48059892  0.47533362  0.90345180    -0.71500
O399        O  0.43809650  0.47194033  0.92741920    -0.71400
O400        O  0.52483574  0.50965385  0.92390150    -0.71600
V401        V  0.49486840  0.40896433  0.92969172     1.35200
V402        V  0.48187569  0.48796940  0.92573553     1.35200
C403        C  0.54727975  0.47690447  0.92568611     0.77800
C404        C  0.42872276  0.42499334  0.92972355     0.77900
C405        C  0.48707495  0.42887676  0.89841891     0.77700
C406        C  0.48934660  0.46295342  0.95720537     0.77700
O407        O  0.43154920  0.50777444  0.05408308    -0.71400
O408        O  0.52135010  0.54492966  0.05047616    -0.71600
O409        O  0.47488445  0.51617886  0.03064878    -0.71500
O410        O  0.47740515  0.54129061  0.07376953    -0.71500
O411        O  0.49010720  0.45925114  0.07854210    -0.71500
O412        O  0.48828928  0.43348832  0.03407766    -0.71500
O413        O  0.53296248  0.46200666  0.05465453    -0.71400
O414        O  0.44572482  0.42582604  0.05804445    -0.71600
V415        V  0.47651582  0.52594192  0.05234489     1.35200
V416        V  0.48894847  0.44669641  0.05628011     1.35200
C417        C  0.42357222  0.45933008  0.05641357     0.77800
C418        C  0.54252512  0.50873603  0.05191559     0.77900
C419        C  0.48116204  0.47158372  0.02482561     0.77700
C420        C  0.48438381  0.50594370  0.08362196     0.77700
O421        O  0.03518680  0.19922705  0.92645865    -0.71400
O422        O  0.94643651  0.15797303  0.93004998    -0.71600
O423        O  0.98960516  0.16514610  0.90670087    -0.71500
O424        O  0.99235038  0.18751069  0.94978593    -0.71500
O425        O  0.97676682  0.26931745  0.94701669    -0.71500
O426        O  0.97655121  0.24769292  0.90238566    -0.71500
O427        O  0.93315219  0.24028233  0.92594354    -0.71400
O428        O  0.02006602  0.28122763  0.92344551    -0.71600
V429        V  0.99068749  0.17914009  0.92813671     1.35200
V430        V  0.97698327  0.25815856  0.92472588     1.35200
C431        C  0.04258240  0.24818039  0.92485358     0.77800
C432        C  0.92459138  0.19291844  0.92849556     0.77900
C433        C  0.98200707  0.20118048  0.89718704     0.77700
C434        C  0.98467170  0.23094204  0.95597901     0.77700
O435        O  0.93054638  0.24754437  0.05445669    -0.71400
O436        O  0.01766767  0.29825459  0.05003234    -0.71600
O437        O  0.97147578  0.26659156  0.03051103    -0.71500
O438        O  0.97643397  0.28343931  0.07401923    -0.71500
O439        O  0.99363638  0.20237859  0.07687889    -0.71500
O440        O  0.98943524  0.18587495  0.03232512    -0.71500
O441        O  0.03396812  0.21661275  0.05250580    -0.71400
O442        O  0.94910306  0.16723032  0.05670950    -0.71600
V443        V  0.97426207  0.27237744  0.05233901     1.35200
V444        V  0.99106678  0.19454665  0.05458356     1.35200
C445        C  0.92525216  0.19774429  0.05582899     0.77800
C446        C  0.04069119  0.26500621  0.05047011     0.77900
C447        C  0.98007536  0.22440685  0.02381507     0.77700
C448        C  0.98668679  0.24715899  0.08286869     0.77700
C449        C  0.00105637  0.19266628  0.98141282    -0.11900
C450        C  0.98467215  0.23338307  0.97333555     0.05100
C451        C  0.96586192  0.26959934  0.98200866    -0.07200
C452        C  0.96366254  0.26399143  0.99836143    -0.08000
C453        C  0.97997723  0.22302954  0.00642740    -0.02500
C454        C  0.99844607  0.18636495  0.99768713     0.04300
N455        N  0.01450113  0.14229585  0.00494852     0.66800
H456        H  0.01537180  0.16394553  0.97495711     0.15700
H457        H  0.94933281  0.29266600  0.00482419     0.15400
N458        N  0.94836305  0.31146128  0.97449342     0.74500
O459        O  0.99808770  0.10710138  0.01212747    -0.38900
O460        O  0.04331797  0.13210402  0.00113521    -0.38900
O461        O  0.91842801  0.31573683  0.97694286    -0.39600
O462        O  0.96345105  0.34910507  0.96773406    -0.39600
C463        C  0.46674567  0.50123493  0.98175320    -0.11900
C464        C  0.48920048  0.46776521  0.97449035     0.05100
C465        C  0.50799362  0.43319538  0.98392464    -0.07200
C466        C  0.50359189  0.43264735  0.00027199    -0.08000
C467        C  0.48147806  0.46674013  0.00753333    -0.02500
C468        C  0.46262618  0.50088115  0.99807427     0.04300
N469        N  0.43796022  0.53353405  0.00479363     0.66800
H470        H  0.45141870  0.52645849  0.97469449     0.15700
H471        H  0.51870383  0.40726348  0.00738872     0.15400
N472        N  0.53233807  0.39957752  0.97715648     0.74500
O473        O  0.44402032  0.58157038  0.00789068    -0.38900
O474        O  0.40904374  0.51814144  0.00432860    -0.38900
O475        O  0.55309221  0.41888819  0.96771706    -0.39600
O476        O  0.53536124  0.35212525  0.98192868    -0.39600
C477        C  0.59864505  0.47626996  0.05498098    -0.11900
C478        C  0.57786692  0.51847982  0.05085981     0.05100
C479        C  0.59156659  0.06779385  0.04642330    -0.07200
C480        C  0.62506095  0.07454234  0.04703771    -0.08000
C481        C  0.64564587  0.03270499  0.05154783    -0.02500
C482        C  0.63216401  0.48267137  0.05518219     0.04300
N483        N  0.65176939  0.43860422  0.05986316     0.66800
H484        H  0.58885436  0.43765355  0.05828442     0.15700
H485        H  0.63515032  0.11311703  0.04388448     0.15400
N486        N  0.57213399  0.11134702  0.04115790     0.74500
O487        O  0.64507253  0.41358423  0.07240241    -0.38900
O488        O  0.67137138  0.41843219  0.05015014    -0.38900
O489        O  0.57678524  0.15749982  0.04645411    -0.39600
O490        O  0.55444918  0.10567390  0.02938468    -0.39600
C491        C  0.85553755  0.09858867  0.05426299    -0.11900
C492        C  0.82960760  0.12971829  0.05943651     0.05100
C493        C  0.83546999  0.18382889  0.06332695    -0.07200
C494        C  0.86647498  0.20549005  0.06162399    -0.08000
C495        C  0.89232195  0.17444114  0.05637091    -0.02500
C496        C  0.88658407  0.12028378  0.05246425     0.04300
N497        N  0.91147773  0.08741475  0.04584837     0.66800
H498        H  0.85141624  0.05764326  0.05084358     0.15700
H499        H  0.87047875  0.24667790  0.06483835     0.15400
N500        N  0.81034393  0.21745330  0.06921703     0.74500
O501        O  0.92684435  0.10290989  0.03374534    -0.38900
O502        O  0.91446027  0.03977677  0.05046146    -0.38900
O503        O  0.79861697  0.20929436  0.08277422    -0.39600
O504        O  0.80256524  0.25882336  0.06167926    -0.39600
C505        C  0.88056599  0.12978626  0.93578461    -0.11900
C506        C  0.88981082  0.17977049  0.92984687     0.05100
C507        C  0.86553739  0.21738880  0.92608636    -0.07200
C508        C  0.83299923  0.20411161  0.92830459    -0.08000
C509        C  0.82388125  0.15357982  0.93379962    -0.02500
C510        C  0.84805353  0.11646408  0.93795862     0.04300
N511        N  0.84003058  0.06548052  0.94471837     0.66800
H512        H  0.89875078  0.10108301  0.93910603     0.15700
H513        H  0.81473987  0.23245025  0.92480125     0.15400
N514        N  0.87326234  0.26825390  0.91926018     0.74500
O515        O  0.85466409  0.02417793  0.94021956    -0.38900
O516        O  0.82111336  0.06253189  0.95642594    -0.38900
O517        O  0.88501002  0.27086500  0.90552927    -0.39600
O518        O  0.86358811  0.31027790  0.92583039    -0.39600
C519        C  0.61854879  0.07147814  0.92126042    -0.11900
C520        C  0.64228447  0.04420891  0.92944594     0.05100
C521        C  0.63530078  0.49294494  0.93579846    -0.07200
C522        C  0.60482093  0.46995644  0.93349932    -0.08000
C523        C  0.58089892  0.49742217  0.92536311    -0.02500
C524        C  0.58830280  0.04856474  0.91889885     0.04300
N525        N  0.56575273  0.07727691  0.90951840     0.66800
H526        H  0.62400777  0.11009426  0.91604007     0.15700
H527        H  0.59921906  0.43163029  0.93885207     0.15400
N528        N  0.65814892  0.46481923  0.94525811     0.74500
O529        O  0.56096956  0.12625037  0.91184540    -0.38900
O530        O  0.55410579  0.55568090  0.89759550    -0.38900
O531        O  0.67371588  0.48920637  0.95558815    -0.39600
O532        O  0.65946787  0.41459064  0.94486890    -0.39600
C533        C  0.75767765  0.06415789  0.98481944    -0.11900
C534        C  0.73116018  0.08820253  0.97782529     0.05100
C535        C  0.70883774  0.11697985  0.98721098    -0.07200
C536        C  0.71419634  0.12221709  0.00330580    -0.08000
C537        C  0.74079203  0.09820008  0.01027549    -0.02500
C538        C  0.76313172  0.06960420  0.00086162     0.04300
N539        N  0.79177182  0.04694605  0.00738553     0.66800
H540        H  0.77524870  0.04325627  0.97760637     0.15700
H541        H  0.69633030  0.14215169  0.01059569     0.15400
N542        N  0.67997858  0.13891606  0.98070732     0.74500
O543        O  0.80231159  0.00287210  0.00248718    -0.38900
O544        O  0.80826840  0.07319481  0.01695727    -0.38900
O545        O  0.66355605  0.11204627  0.97125206    -0.39600
O546        O  0.66891551  0.18249189  0.98571599    -0.39600
C547        C  0.13163640  0.25588138  0.04742934    -0.11900
C548        C  0.14092835  0.30542071  0.05327241     0.05100
C549        C  0.11665860  0.34341992  0.05701299    -0.07200
C550        C  0.08416761  0.33092223  0.05487855    -0.08000
C551        C  0.07497992  0.28084221  0.04948489    -0.02500
C552        C  0.09913782  0.24340723  0.04539244     0.04300
N553        N  0.09109092  0.19278944  0.03887597     0.66800
H554        H  0.14973019  0.22678815  0.04414604     0.15700
H555        H  0.06594056  0.35955858  0.05835219     0.15400
N556        N  0.12425497  0.39409545  0.06362406     0.74500
O557        O  0.07627190  0.19067873  0.02609787    -0.38900
O558        O  0.10145241  0.15041453  0.04504230    -0.38900
O559        O  0.11555236  0.43632133  0.05677939    -0.39600
O560        O  0.13438974  0.39642957  0.07747643    -0.39600
C561        C  0.33209446  0.44993047  0.05359999    -0.11900
C562        C  0.32659327  0.39602543  0.05765408     0.05100
C563        C  0.35293124  0.36416243  0.06196975    -0.07200
C564        C  0.38401646  0.38615383  0.06143760    -0.08000
C565        C  0.38969011  0.43981634  0.05704565    -0.02500
C566        C  0.36315654  0.47193702  0.05319358     0.04300
N567        N  0.36722784  0.52634754  0.04841053     0.66800
H568        H  0.31212637  0.47511924  0.05026105     0.15700
H569        H  0.40392068  0.36094873  0.06482906     0.15400
N570        N  0.34855945  0.31047493  0.06757990     0.74500
O571        O  0.37973419  0.53714774  0.03517789    -0.38900
O572        O  0.35365827  0.56282148  0.05614955    -0.38900
O573        O  0.36810885  0.27462199  0.06343893    -0.39600
O574        O  0.32842366  0.30061158  0.07848133    -0.39600
C575        C  0.38240596  0.36329038  0.93476246    -0.11900
C576        C  0.39351340  0.41430072  0.93072300     0.05100
C577        C  0.37052977  0.45514283  0.92793953    -0.07200
C578        C  0.33757993  0.44409824  0.92925154    -0.08000
C579        C  0.32647024  0.39266328  0.93266986    -0.02500
C580        C  0.34937882  0.35177376  0.93556266     0.04300
N581        N  0.33984895  0.29815407  0.93924278     0.66800
H582        H  0.39947229  0.33164642  0.93704091     0.15700
H583        H  0.32055277  0.47565423  0.92679078     0.15400
N584        N  0.37997463  0.50772702  0.92310535     0.74500
O585        O  0.33185562  0.26760442  0.92828018    -0.38900
O586        O  0.34794256  0.27788339  0.95217859    -0.38900
O587        O  0.38931865  0.51604625  0.90913800    -0.39600
O588        O  0.37372688  0.54681059  0.93184360    -0.39600
C589        C  0.13290780  0.25827588  0.93119668    -0.11900
C590        C  0.13928793  0.31170020  0.92690256     0.05100
C591        C  0.11380418  0.34328704  0.92146631    -0.07200
C592        C  0.08276317  0.32140906  0.92057352    -0.08000
C593        C  0.07631798  0.26811537  0.92509082    -0.02500
C594        C  0.10191557  0.23652514  0.93047470     0.04300
N595        N  0.09674910  0.18302192  0.93586485     0.66800
H596        H  0.15207166  0.23315172  0.93552546     0.15700
H597        H  0.06355124  0.34654609  0.91630946     0.15400
N598        N  0.11918815  0.39693837  0.91632613     0.74500
O599        O  0.10877511  0.14469364  0.92831589    -0.38900
O600        O  0.08384248  0.17454552  0.94915734    -0.38900
O601        O  0.12557565  0.40663075  0.90206926    -0.39600
O602        O  0.11421311  0.43492821  0.92564231    -0.39600
C603        C  0.20557862  0.37980062  0.98516447    -0.11900
C604        C  0.22969470  0.35210506  0.97678135     0.05100
C605        C  0.25706217  0.33401558  0.98473461    -0.07200
C606        C  0.25928136  0.34218033  0.00085028    -0.08000
C607        C  0.23458090  0.36761491  0.00935846    -0.02500
C608        C  0.20772536  0.38732814  0.00138388     0.04300
N609        N  0.18179244  0.41231632  0.00968882     0.66800
H610        H  0.18485250  0.39537797  0.97907583     0.15700
H611        H  0.28015229  0.32691046  0.00690004     0.15400
N612        N  0.28353633  0.30985565  0.97655370     0.74500
O613        O  0.15900017  0.38452670  0.01536842    -0.38900
O614        O  0.18082837  0.46241926  0.01066888    -0.38900
O615        O  0.31137480  0.32966814  0.97762484    -0.39600
O616        O  0.28028959  0.26411120  0.97074836    -0.39600
C617        C  0.49074294  0.11237732  0.50367266    -0.11900
C618        C  0.46410476  0.13447852  0.51140975     0.05100
C619        C  0.44121150  0.16381378  0.50275369    -0.07200
C620        C  0.44680023  0.17376749  0.48677447    -0.08000
C621        C  0.47397291  0.15325476  0.47910458    -0.02500
C622        C  0.49608267  0.12157648  0.48759025     0.04300
N623        N  0.52472675  0.10060629  0.48024518     0.66800
H624        H  0.50874356  0.09134179  0.51038406     0.15700
H625        H  0.42902453  0.19552200  0.48011343     0.15400
N626        N  0.41214047  0.18334768  0.51007550     0.74500
O627        O  0.54093371  0.12878855  0.47063493    -0.38900
O628        O  0.53582794  0.05622175  0.48462551    -0.38900
O629        O  0.39946611  0.22607913  0.50532195    -0.39600
O630        O  0.39750133  0.15558321  0.52036162    -0.39600
C631        C  0.31741925  0.12359491  0.55582782    -0.11900
C632        C  0.31155557  0.06848167  0.55771306     0.05100
C633        C  0.33775104  0.03469844  0.56093217    -0.07200
C634        C  0.36883916  0.05640589  0.56191058    -0.08000
C635        C  0.37469555  0.11156178  0.56002120    -0.02500
C636        C  0.34840249  0.14523615  0.55699882     0.04300
N637        N  0.35264684  0.20138935  0.55490429     0.66800
H638        H  0.29775006  0.15049682  0.55331693     0.15700
H639        H  0.38859026  0.02953973  0.56428187     0.15400
N640        N  0.33329704  0.97869376  0.56362433     0.74500
O641        O  0.35152069  0.22167228  0.54133712    -0.38900
O642        O  0.35302117  0.23132810  0.56671013    -0.38900
O643        O  0.35087844  0.94567098  0.55643654    -0.39600
O644        O  0.31546084  0.96264636  0.57483570    -0.39600
C645        C  0.33327110  0.06429293  0.43059095    -0.11900
C646        C  0.31247155  0.10881905  0.43086267     0.05100
C647        C  0.32587777  0.15986509  0.43279040    -0.07200
C648        C  0.35923468  0.16509485  0.43442939    -0.08000
C649        C  0.38009988  0.12073221  0.43372859    -0.02500
C650        C  0.36664968  0.06964390  0.43207901     0.04300
N651        N  0.38629913  0.02285336  0.43178208     0.66800
H652        H  0.32360674  0.02443293  0.42935433     0.15700
H653        H  0.36894250  0.20493323  0.43564322     0.15400
N654        N  0.30646964  0.20698744  0.43240032     0.74500
O655        O  0.40108614  0.00875046  0.44393997    -0.38900
O656        O  0.38459731  0.99115622  0.42041391    -0.38900
O657        O  0.30977997  0.24204609  0.44277954    -0.39600
O658        O  0.29077855  0.21813010  0.42025551    -0.39600
C659        C  0.20868658  0.09094394  0.48334160    -0.11900
C660        C  0.21693488  0.04682142  0.47394333     0.05100
C661        C  0.22744383  0.99981146  0.48134546    -0.07200
C662        C  0.22984202  0.99818316  0.49772847    -0.08000
C663        C  0.22163035  0.04247440  0.50708720    -0.02500
C664        C  0.21133649  0.08958260  0.49964350     0.04300
N665        N  0.20408457  0.13681181  0.50831621     0.66800
H666        H  0.20086516  0.12795441  0.47799870     0.15700
H667        H  0.23759476  0.96127864  0.50315935     0.15400
N668        N  0.23550169  0.95335986  0.47251744     0.74500
O669        O  0.22624984  0.16063706  0.51542663    -0.38900
O670        O  0.17731130  0.15963912  0.50660534    -0.38900
O671        O  0.26334600  0.93365597  0.47339430    -0.39600
O672        O  0.21363301  0.92772317  0.46573726    -0.39600
C673        C  0.07944533  0.42247630  0.55105648    -0.11900
C674        C  0.05742940  0.46529754  0.55122654     0.05100
C675        C  0.06964019  0.51776246  0.55052896    -0.07200
C676        C  0.10316246  0.02565448  0.55062201    -0.08000
C677        C  0.12497631  0.48300937  0.55113697    -0.02500
C678        C  0.11276051  0.43063756  0.55121498     0.04300
N679        N  0.13348826  0.38525362  0.55232902     0.66800
H680        H  0.07081487  0.38167642  0.55147259     0.15700
H681        H  0.11205362  0.06630416  0.55016820     0.15400
N682        N  0.04878091  0.56309186  0.54971538     0.74500
O683        O  0.15008438  0.37836120  0.56444638    -0.38900
O684        O  0.13067554  0.34753736  0.54274722    -0.38900
O685        O  0.05347878  0.10210941  0.55850586    -0.39600
O686        O  0.03000406  0.56819416  0.53831243    -0.39600
C687        C  0.06800152  0.03142673  0.43103983    -0.11900
C688        C  0.06355256  0.47775077  0.42685161     0.05100
C689        C  0.09049454  0.94804364  0.42189438    -0.07200
C690        C  0.12093126  0.97201422  0.42132749    -0.08000
C691        C  0.12558350  0.02561857  0.42568016    -0.02500
C692        C  0.09858565  0.05538759  0.43056879     0.04300
N693        N  0.10183932  0.10933942  0.43551425     0.66800
H694        H  0.04762906  0.05497973  0.43499129     0.15700
H695        H  0.14114369  0.94797685  0.41744819     0.15400
N696        N  0.08733709  0.39415053  0.41697776     0.74500
O697        O  0.09750286  0.14696722  0.42588156    -0.38900
O698        O  0.10571128  0.11944563  0.44982923    -0.38900
O699        O  0.07872210  0.38401974  0.40319745    -0.39600
O700        O  0.09649338  0.35681429  0.42583097    -0.39600
C701        C  0.98296033  0.37946664  0.48496186    -0.11900
C702        C  0.97198075  0.42521054  0.47692768     0.05100
C703        C  0.95641989  0.46551863  0.48557201    -0.07200
C704        C  0.95157759  0.45859750  0.50173782    -0.08000
C705        C  0.96277104  0.41303436  0.50978496    -0.02500
C706        C  0.97830807  0.37279067  0.50114877     0.04300
N707        N  0.98952596  0.32498712  0.50851542     0.66800
H708        H  0.99468623  0.34758045  0.47859097     0.15700
H709        H  0.93991271  0.49049690  0.50813077     0.15400
N710        N  0.94646584  0.01439419  0.47836452     0.74500
O711        O  0.96952454  0.29283274  0.51469439    -0.38900
O712        O  0.01841623  0.31068197  0.50655812    -0.38900
O713        O  0.91853318  0.03202964  0.48114845    -0.39600
O714        O  0.96703515  0.04448455  0.47172376    -0.39600
C715        C  0.83710821  0.30709630  0.43006804    -0.11900
C716        C  0.81426789  0.34753088  0.43298553     0.05100
C717        C  0.82538356  0.39844773  0.43713767    -0.07200
C718        C  0.85855063  0.40833498  0.43759798    -0.08000
C719        C  0.88134505  0.36843945  0.43404424    -0.02500
C720        C  0.87029917  0.31660590  0.43077522     0.04300
N721        N  0.89205976  0.27335660  0.42788297     0.66800
H722        H  0.82922435  0.26715878  0.42727357     0.15700
H723        H  0.86650526  0.44823140  0.44042976     0.15400
N724        N  0.80357445  0.44075767  0.44075594     0.74500
O725        O  0.91108097  0.25883555  0.43847968    -0.38900
O726        O  0.88720165  0.24251917  0.41654130    -0.38900
O727        O  0.80266565  0.45962125  0.45442225    -0.39600
O728        O  0.78986404  0.46547231  0.42979989    -0.39600
C729        C  0.59241733  0.17355129  0.42558368    -0.11900
C730        C  0.56733536  0.20451162  0.43171096     0.05100
C731        C  0.57411225  0.25737010  0.43656402    -0.07200
C732        C  0.60506861  0.27867221  0.43435272    -0.08000
C733        C  0.63013152  0.24813957  0.42800407    -0.02500
C734        C  0.62355792  0.19467515  0.42365423     0.04300
N735        N  0.64801665  0.16134607  0.41701429     0.66800
H736        H  0.58762636  0.13324336  0.42174734     0.15700
H737        H  0.60983031  0.31885806  0.43829701     0.15400
N738        N  0.55023349  0.28935561  0.44436036     0.74500
O739        O  0.65684711  0.12002155  0.42428086    -0.38900
O740        O  0.65791312  0.16956887  0.40313242    -0.38900
O741        O  0.53535422  0.27122555  0.45629183    -0.39600
O742        O  0.54724816  0.33794617  0.44073118    -0.39600
C743        C  0.60772010  0.25192610  0.54778809    -0.11900
C744        C  0.62966592  0.21038829  0.55071072     0.05100
C745        C  0.61763164  0.15880135  0.55360943    -0.07200
C746        C  0.58425374  0.15033683  0.55437457    -0.08000
C747        C  0.56224952  0.19267874  0.55242020    -0.02500
C748        C  0.57443498  0.24381059  0.54877790     0.04300
N749        N  0.55359060  0.28844086  0.54659586     0.66800
H750        H  0.61642186  0.29191988  0.54529103     0.15700
H751        H  0.57561355  0.11038695  0.55695609     0.15400
N752        N  0.63879724  0.11523850  0.55660933     0.74500
O753        O  0.54041887  0.31003187  0.55836313    -0.38900
O754        O  0.55295218  0.31180751  0.53344584    -0.38900
O755        O  0.64864863  0.10678322  0.57032324    -0.39600
O756        O  0.64491112  0.08205751  0.54594470    -0.39600
C757        C  0.86974616  0.31101341  0.56276013    -0.11900
C758        C  0.87307199  0.36646111  0.56009761     0.05100
C759        C  0.84520044  0.39631892  0.55685640    -0.07200
C760        C  0.81532654  0.37034995  0.55607783    -0.08000
C761        C  0.81207599  0.31499023  0.55872596    -0.02500
C762        C  0.83975517  0.28523498  0.56225206     0.04300
N763        N  0.83789301  0.22931864  0.56572081     0.66800
H764        H  0.89068861  0.28707304  0.56538693     0.15700
H765        H  0.79435305  0.39409819  0.55334625     0.15400
N766        N  0.84661809  0.45267048  0.55410117     0.74500
O767        O  0.85707860  0.19749433  0.55904733    -0.38900
O768        O  0.82042468  0.21278623  0.57700794    -0.38900
O769        O  0.83452632  0.47217407  0.54184940    -0.39600
O770        O  0.85440747  0.48335399  0.56506739    -0.39600
C771        C  0.69931134  0.29968106  0.50133879    -0.11900
C772        C  0.72588649  0.27586803  0.50835903     0.05100
C773        C  0.74915571  0.24936872  0.49890599    -0.07200
C774        C  0.74510996  0.24747389  0.48261743    -0.08000
C775        C  0.71874545  0.27206630  0.47560830    -0.02500
C776        C  0.69509882  0.29727716  0.48511985     0.04300
N777        N  0.66632545  0.31931707  0.47851419     0.66800
H778        H  0.68078290  0.31780599  0.50863086     0.15700
H779        H  0.76369057  0.22965686  0.47529301     0.15400
N780        N  0.77757037  0.22624223  0.50555072     0.74500
O781        O  0.65198985  0.29515607  0.46772357    -0.38900
O782        O  0.65320126  0.35966119  0.48459734    -0.38900
O783        O  0.78988489  0.18501098  0.49958920    -0.39600
O784        O  0.79250095  0.25020035  0.51618844    -0.39600
C785        C  0.99813286  0.21498385  0.86939180    -0.11900
C786        C  0.97996751  0.18657329  0.88055883     0.05100
C787        C  0.96576554  0.13736453  0.87642832    -0.07200
C788        C  0.97091224  0.11685408  0.86137617    -0.08000
C789        C  0.98964985  0.14455022  0.85020115    -0.02500
C790        C  0.00365269  0.19424805  0.85436548     0.04300
N791        N  0.02484372  0.22296943  0.84383212     0.66800
H792        H  0.01006206  0.25158376  0.87271766     0.15700
H793        H  0.95930310  0.07977542  0.85825451     0.15400
N794        N  0.94576445  0.10807395  0.88739503     0.74500
O795        O  0.02212108  0.27283017  0.84231379    -0.38900
O796        O  0.04922437  0.20011105  0.83798896    -0.38900
O797        O  0.92463193  0.13189743  0.89547974    -0.39600
O798        O  0.94711399  0.05785045  0.88798711    -0.39600
C799        C  0.98107798  0.01948832  0.62273058    -0.11900
C800        C  0.97093080  0.98379821  0.63451998     0.05100
C801        C  0.96262885  0.43115354  0.63023843    -0.07200
C802        C  0.96370091  0.41597308  0.61446597    -0.08000
C803        C  0.97287951  0.45233253  0.60273565    -0.02500
C804        C  0.98240335  0.50452309  0.60698976     0.04300
N805        N  0.99472605  0.04146340  0.59547408     0.66800
H806        H  0.98840037  0.05954812  0.62577022     0.15700
H807        H  0.95615801  0.37608696  0.61133657     0.15400
N808        N  0.95237197  0.39241777  0.64165766     0.74500
O809        O  0.98655562  0.08982194  0.59610034    -0.38900
O810        O  0.01601194  0.52836386  0.58577974    -0.38900
O811        O  0.92275700  0.38234877  0.64350390    -0.39600
O812        O  0.97289376  0.36280858  0.64809950    -0.39600
C813        C  0.96819799  0.01477500  0.73642697    -0.11900
C814        C  0.97623800  0.05731388  0.72614330     0.05100
C815        C  0.98724461  0.10538472  0.73250871    -0.07200
C816        C  0.99006817  0.11000648  0.74874653    -0.08000
C817        C  0.98185599  0.06759297  0.75906631    -0.02500
C818        C  0.97056679  0.01954119  0.75271045     0.04300
N819        N  0.96083890  0.97554697  0.76249988     0.66800
H820        H  0.95952566  0.97733922  0.73185012     0.15700
H821        H  0.99879410  0.14750776  0.75325601     0.15400
N822        N  0.99598566  0.14975755  0.72271200     0.74500
O823        O  0.93614058  0.47902432  0.77105270    -0.38900
O824        O  0.97349854  0.93041496  0.76047738    -0.38900
O825        O  0.97538928  0.18504945  0.71964899    -0.39600
O826        O  0.02509653  0.15712432  0.71878654    -0.39600
C827        C  0.73607387  0.10982560  0.85725446    -0.11900
C828        C  0.73807305  0.16386238  0.85254124     0.05100
C829        C  0.74063501  0.20312174  0.86415889    -0.07200
C830        C  0.73911852  0.18787174  0.88002324    -0.08000
C831        C  0.73592858  0.13396498  0.88466228    -0.02500
C832        C  0.73468274  0.09455306  0.87305610     0.04300
N833        N  0.73017435  0.03931674  0.87699004     0.66800
H834        H  0.73441015  0.07871201  0.84855825     0.15700
H835        H  0.74090612  0.21863328  0.88882579     0.15400
N836        N  0.74467578  0.25830139  0.86016326     0.74500
O837        O  0.70592772  0.02483180  0.88508959    -0.38900
O838        O  0.74731190  0.00442973  0.87034170    -0.38900
O839        O  0.72601407  0.29251300  0.86610337    -0.39600
O840        O  0.77013744  0.27365438  0.85318958    -0.39600
C841        C  0.83886453  0.10649106  0.81085747    -0.11900
C842        C  0.82723744  0.15089805  0.80283895     0.05100
C843        C  0.84937052  0.18750084  0.79577827    -0.07200
C844        C  0.88259866  0.17924446  0.79730374    -0.08000
C845        C  0.89429316  0.13504712  0.80551082    -0.02500
C846        C  0.87193834  0.09867405  0.81259481     0.04300
N847        N  0.88220941  0.05491283  0.82222221     0.66800
H848        H  0.82207907  0.07935960  0.81669110     0.15700
H849        H  0.89938881  0.20650999  0.79154572     0.15400
N850        N  0.83858517  0.23225739  0.78665059     0.74500
O851        O  0.89996054  0.06339994  0.83382394    -0.38900
O852        O  0.86965074  0.00943965  0.82064148    -0.38900
O853        O  0.85370716  0.27594167  0.78699623    -0.39600
O854        O  0.81646237  0.22645885  0.77682331    -0.39600
C855        C  0.70844444  0.24444763  0.62852256    -0.11900
C856        C  0.71528047  0.19175791  0.63321599     0.05100
C857        C  0.72067480  0.15295770  0.62167471    -0.07200
C858        C  0.72102853  0.16838318  0.60581701    -0.08000
C859        C  0.71552268  0.22172046  0.60115657    -0.02500
C860        C  0.70846453  0.25964198  0.61274732     0.04300
N861        N  0.70269306  0.31420028  0.60880892     0.66800
H862        H  0.70386960  0.27480231  0.63726153     0.15700
H863        H  0.72596589  0.13820795  0.59708507     0.15400
N864        N  0.72744777  0.09872526  0.62578841     0.74500
O865        O  0.67442532  0.32959770  0.60606536    -0.38900
O866        O  0.72504150  0.34804355  0.60996766    -0.38900
O867        O  0.70629396  0.07097017  0.63286023    -0.39600
O868        O  0.75202438  0.07613522  0.62006421    -0.39600
C869        C  0.85435675  0.04717106  0.67434597    -0.11900
C870        C  0.87939293  0.07828830  0.68015531     0.05100
C871        C  0.87287443  0.13148074  0.68474219    -0.07200
C872        C  0.84186057  0.15255819  0.68294140    -0.08000
C873        C  0.81674339  0.12163846  0.67705488    -0.02500
C874        C  0.82332911  0.06827881  0.67251889     0.04300
N875        N  0.79924798  0.03556182  0.66546432     0.66800
H876        H  0.85931677  0.00691661  0.67046189     0.15700
H877        H  0.83700641  0.19276606  0.68688520     0.15400
N878        N  0.89704197  0.16382240  0.69193069     0.74500
O879        O  0.78457219  0.05224662  0.65354925    -0.38900
O880        O  0.79602602  0.98743830  0.66964579    -0.38900
O881        O  0.89857742  0.21314610  0.68896457    -0.39600
O882        O  0.91393472  0.14476188  0.70278732    -0.39600
C883        C  0.74105912  0.13877272  0.73529516    -0.11900
C884        C  0.72792130  0.18024471  0.72652913     0.05100
C885        C  0.71882421  0.22829679  0.73405908    -0.07200
C886        C  0.72330955  0.23371941  0.75020912    -0.08000
C887        C  0.73599645  0.19187164  0.75900881    -0.02500
C888        C  0.74580415  0.14434250  0.75139162     0.04300
N889        N  0.76152289  0.10209660  0.75976045     0.66800
H890        H  0.74914325  0.10288224  0.72945639     0.15700
H891        H  0.71504667  0.26947690  0.75605727     0.15400
N892        N  0.70363402  0.27089067  0.72562428     0.74500
O893        O  0.75564470  0.05407620  0.75653151    -0.38900
O894        O  0.78413498  0.11261876  0.76896165    -0.38900
O895        O  0.68039320  0.26114541  0.71672032    -0.39600
O896        O  0.71067708  0.31871987  0.72854196    -0.39600
C897        C  0.47565039  0.18397384  0.63116155    -0.11900
C898        C  0.47316633  0.23906929  0.63413741     0.05100
C899        C  0.47200154  0.27481384  0.62135685    -0.07200
C900        C  0.47276004  0.25475947  0.60607615    -0.08000
C901        C  0.47413583  0.19949613  0.60307777    -0.02500
C902        C  0.47653037  0.16396748  0.61587095     0.04300
N903        N  0.47981894  0.10773996  0.61365102     0.66800
H904        H  0.47739478  0.15586956  0.64083974     0.15700
H905        H  0.47114869  0.28303209  0.59643934     0.15400
N906        N  0.46836745  0.33107305  0.62358615     0.74500
O907        O  0.50519054  0.08965414  0.60734937    -0.38900
O908        O  0.46050839  0.07602452  0.62052148    -0.38900
O909        O  0.48560282  0.36335393  0.61569261    -0.39600
O910        O  0.44473287  0.34855003  0.63147168    -0.39600
C911        C  0.57660541  0.19565362  0.68918742    -0.11900
C912        C  0.56586325  0.23903142  0.68030326     0.05100
C913        C  0.58891724  0.27268477  0.67263376    -0.07200
C914        C  0.62183280  0.26322969  0.67451843    -0.08000
C915        C  0.63253487  0.21963950  0.68325084    -0.02500
C916        C  0.60962316  0.18566631  0.69083871     0.04300
N917        N  0.61943356  0.14175310  0.70055935     0.66800
H918        H  0.55924493  0.17040931  0.69534561     0.15700
H919        H  0.63918686  0.28814170  0.66822623     0.15400
N920        N  0.57946307  0.31483041  0.66219173     0.74500
O921        O  0.64139139  0.14794377  0.71045378    -0.38900
O922        O  0.60378770  0.09854112  0.70052882    -0.38900
O923        O  0.59405745  0.35902347  0.66233008    -0.39600
O924        O  0.56021704  0.30530370  0.65124586    -0.39600
C925        C  0.48245632  0.43027662  0.85369803    -0.11900
C926        C  0.48266080  0.37522393  0.85039152     0.05100
C927        C  0.48291837  0.33877344  0.86301444    -0.07200
C928        C  0.48436188  0.35763537  0.87838501    -0.08000
C929        C  0.48495663  0.41265882  0.88171269    -0.02500
C930        C  0.48350261  0.44914908  0.86912619     0.04300
N931        N  0.48446310  0.50530150  0.87168617     0.66800
H932        H  0.48205646  0.45924604  0.84419723     0.15700
H933        H  0.48479666  0.32848655  0.88783706     0.15400
N934        N  0.48235452  0.28252356  0.86049247     0.74500
O935        O  0.51107236  0.52767059  0.87424047    -0.38900
O936        O  0.46028357  0.53344763  0.86847754    -0.38900
O937        O  0.50638990  0.25461641  0.86411007    -0.39600
O938        O  0.45621619  0.25988160  0.85712667    -0.39600
C939        C  0.58283304  0.22743350  0.80578688    -0.11900
C940        C  0.57811796  0.28312056  0.80612698     0.05100
C941        C  0.60541070  0.31649295  0.80674750    -0.07200
C942        C  0.63619774  0.29388384  0.80751418    -0.08000
C943        C  0.64093908  0.23817774  0.80724253    -0.02500
C944        C  0.61367727  0.20485872  0.80631862     0.04300
N945        N  0.61670277  0.14812884  0.80597119     0.66800
H946        H  0.56232279  0.20076192  0.80517466     0.15700
H947        H  0.65667801  0.32065920  0.80797515     0.15400
N948        N  0.60252092  0.37330187  0.80651893     0.74500
O949        O  0.62413632  0.12295780  0.81825735    -0.38900
O950        O  0.60767891  0.12275401  0.79410303    -0.38900
O951        O  0.61307680  0.40008303  0.81779852    -0.39600
O952        O  0.59530065  0.39689377  0.79393344    -0.39600
C953        C  0.46065350  0.27582316  0.75246018    -0.11900
C954        C  0.48584376  0.30598227  0.75852591     0.05100
C955        C  0.50622786  0.33561296  0.74814758    -0.07200
C956        C  0.50004981  0.33591170  0.73203085    -0.08000
C957        C  0.47468789  0.30607165  0.72598484    -0.02500
C958        C  0.45458574  0.27601362  0.73636477     0.04300
N959        N  0.42711865  0.24734555  0.73081877     0.66800
H960        H  0.44438213  0.25445187  0.76037665     0.15700
H961        H  0.51626001  0.35721271  0.72407190     0.15400
N962        N  0.53392107  0.36387641  0.75370202     0.74500
O963        O  0.42030534  0.20181075  0.73636124    -0.38900
O964        O  0.40757758  0.26997028  0.72176209    -0.38900
O965        O  0.55184218  0.34275604  0.76381888    -0.39600
O966        O  0.54270166  0.40700977  0.74718960    -0.39600
C967        C  0.21342717  0.00844066  0.62765394    -0.11900
C968        C  0.21919131  0.45534431  0.63205849     0.05100
C969        C  0.22113424  0.41617979  0.62035144    -0.07200
C970        C  0.21839726  0.43169151  0.60456488    -0.08000
C971        C  0.21428046  0.98536561  0.60013465    -0.02500
C972        C  0.21068766  0.02384136  0.61195662     0.04300
N973        N  0.20448705  0.07866526  0.60834162     0.66800
H974        H  0.21080035  0.03887937  0.63653599     0.15700
H975        H  0.22090673  0.40133041  0.59566620     0.15400
N976        N  0.22770736  0.36144033  0.62408414     0.74500
O977        O  0.17799901  0.09166526  0.60236745    -0.38900
O978        O  0.22258246  0.11449146  0.61366276    -0.38900
O979        O  0.21324942  0.32478939  0.61696213    -0.39600
O980        O  0.25126710  0.34963855  0.63260191    -0.39600
C981        C  0.08697319  0.03178891  0.68492235    -0.11900
C982        C  0.06549391  0.99015549  0.68131795     0.05100
C983        C  0.07800837  0.43973705  0.67784401    -0.07200
C984        C  0.11135319  0.43188140  0.67801469    -0.08000
C985        C  0.13306191  0.47379472  0.68115177    -0.02500
C986        C  0.12044443  0.02419632  0.68474747     0.04300
N987        N  0.14102033  0.06811522  0.68834211     0.66800
H988        H  0.07771352  0.07096999  0.68771892     0.15700
H989        H  0.12031825  0.39264892  0.67508726     0.15400
N990        N  0.05750745  0.39671319  0.67326152     0.74500
O991        O  0.15735875  0.09043766  0.67753156    -0.38900
O992        O  0.13825681  0.09060882  0.70147147    -0.38900
O993        O  0.03954156  0.40217866  0.66156063    -0.39600
O994        O  0.06089581  0.35106827  0.67932945    -0.39600
C995        C  0.32235405  0.32533887  0.67940308    -0.11900
C996        C  0.31845711  0.38023903  0.67623472     0.05100
C997        C  0.34616996  0.41182132  0.67361657    -0.07200
C998        C  0.37670771  0.38837460  0.67475531    -0.08000
C999        C  0.38063331  0.33353467  0.67811463    -0.02500
C1000       C  0.35284358  0.30189410  0.68044392     0.04300
N1001       N  0.35488855  0.24622084  0.68408260     0.66800
H1002       H  0.30144869  0.30018072  0.68154503     0.15700
H1003       H  0.39762711  0.41347992  0.67261765     0.15400
N1004       N  0.34392386  0.46697191  0.66921374     0.74500
O1005       O  0.36512535  0.23145243  0.69726813    -0.38900
O1006       O  0.34086113  0.21285222  0.67554157    -0.38900
O1007       O  0.36223286  0.50086039  0.67536503    -0.39600
O1008       O  0.32762165  0.48041979  0.65746437    -0.39600
C1009       C  0.24790508  0.43337074  0.87823902    -0.11900
C1010       C  0.23901952  0.38162469  0.88327418     0.05100
C1011       C  0.23122585  0.34330800  0.87200999    -0.07200
C1012       C  0.23129650  0.35800219  0.85613721    -0.08000
C1013       C  0.23843421  0.41063140  0.85112569    -0.02500
C1014       C  0.24770901  0.44807869  0.86237325     0.04300
N1015       N  0.25657283  0.50123773  0.85797143     0.66800
H1016       H  0.25456300  0.46315949  0.88675104     0.15700
H1017       H  0.22453980  0.32802791  0.84771264     0.15400
N1018       N  0.22133871  0.29046184  0.87645882     0.74500
O1019       O  0.23518927  0.53659075  0.85677978    -0.38900
O1020       O  0.28592685  0.51427554  0.85717298    -0.38900
O1021       O  0.19678097  0.28362519  0.88517298    -0.39600
O1022       O  0.23411075  0.25076461  0.86986394    -0.39600
C1023       C  0.34732598  0.43255017  0.79711050    -0.11900
C1024       C  0.32481277  0.39230227  0.80111340     0.05100
C1025       C  0.33614672  0.34083114  0.80467373    -0.07200
C1026       C  0.36940583  0.33123036  0.80443880    -0.08000
C1027       C  0.39201059  0.37205718  0.80102203    -0.02500
C1028       C  0.38052972  0.42302164  0.79690726     0.04300
N1029       N  0.40196205  0.46552318  0.79241132     0.66800
H1030       H  0.33909724  0.47213952  0.79400970     0.15700
H1031       H  0.37756287  0.29166996  0.80759532     0.15400
N1032       N  0.31463811  0.29869010  0.80942040     0.74500
O1033       O  0.41916398  0.46140992  0.78014370    -0.38900
O1034       O  0.39942943  0.51030018  0.79893917    -0.38900
O1035       O  0.31732688  0.25330579  0.80327873    -0.39600
O1036       O  0.29694073  0.30400214  0.82147954    -0.39600
C1037       C  0.08438906  0.49288237  0.81144102    -0.11900
C1038       C  0.08037148  0.04528827  0.80562013     0.05100
C1039       C  0.10792958  0.07380399  0.80045595    -0.07200
C1040       C  0.13836454  0.04982057  0.80149085    -0.08000
C1041       C  0.14214528  0.49726621  0.80717321    -0.02500
C1042       C  0.11470143  0.46876027  0.81235209     0.04300
N1043       N  0.11715507  0.41645150  0.81918540     0.66800
H1044       H  0.06372218  0.47028805  0.81570849     0.15700
H1045       H  0.15923046  0.07197872  0.79723173     0.15400
N1046       N  0.10556697  0.12597585  0.79360943     0.74500
O1047       O  0.13696526  0.40774086  0.82997881    -0.38900
O1048       O  0.09649493  0.38121774  0.81610632    -0.38900
O1049       O  0.12412689  0.16264711  0.79801262    -0.39600
O1050       O  0.08945953  0.13273497  0.78132880    -0.39600
C1051       C  0.25163379  0.47253144  0.74911520    -0.11900
C1052       C  0.22657802  0.44923251  0.75791400     0.05100
C1053       C  0.20316878  0.41775489  0.75028753    -0.07200
C1054       C  0.20647706  0.40794336  0.73419691    -0.08000
C1055       C  0.23180996  0.43052821  0.72544187    -0.02500
C1056       C  0.25465276  0.46325362  0.73298710     0.04300
N1057       N  0.28157367  0.48598738  0.72450080     0.66800
H1058       H  0.27004670  0.49538667  0.75495152     0.15700
H1059       H  0.18810387  0.38515910  0.72830942     0.15400
N1060       N  0.17545514  0.39686139  0.75864337     0.74500
O1061       O  0.29016073  0.03317881  0.72700256    -0.38900
O1062       O  0.29857540  0.45736210  0.71553346    -0.38900
O1063       O  0.16077520  0.42512856  0.76861960    -0.39600
O1064       O  0.16351152  0.35254876  0.75487455    -0.39600
C1065       C  0.24715215  0.12198969  0.35609902    -0.11900
C1066       C  0.22842791  0.16607830  0.35170109     0.05100
C1067       C  0.20676211  0.18818585  0.36258891    -0.07200
C1068       C  0.20418525  0.16615042  0.37769183    -0.08000
C1069       C  0.22282976  0.12176766  0.38216491    -0.02500
C1070       C  0.24486846  0.10014458  0.37124812     0.04300
N1071       N  0.26588693  0.05757073  0.37551476     0.66800
H1072       H  0.26367485  0.10434334  0.34764746     0.15700
H1073       H  0.18696915  0.18330568  0.38589250     0.15400
N1074       N  0.18553144  0.23013117  0.35809036     0.74500
O1075       O  0.26397957  0.01329858  0.36868654    -0.38900
O1076       O  0.28877857  0.06615103  0.38472609    -0.38900
O1077       O  0.15937237  0.21931301  0.35147692    -0.39600
O1078       O  0.19208651  0.27775256  0.36145200    -0.39600
C1079       C  0.25012071  0.31871634  0.12856661    -0.11900
C1080       C  0.24230738  0.26526686  0.13247139     0.05100
C1081       C  0.23079114  0.23176217  0.12060547    -0.07200
C1082       C  0.22722593  0.25236520  0.10540176    -0.08000
C1083       C  0.23565726  0.30539139  0.10153881    -0.02500
C1084       C  0.24737382  0.33884313  0.11329555     0.04300
N1085       N  0.25822499  0.39211222  0.10985940     0.66800
H1086       H  0.25920854  0.34534431  0.13741611     0.15700
H1087       H  0.21850912  0.22604941  0.09636818     0.15400
N1088       N  0.22312702  0.17685684  0.12359645     0.74500
O1089       O  0.25114798  0.42946846  0.11910386    -0.38900
O1090       O  0.27891402  0.40035444  0.09909259    -0.38900
O1091       O  0.19670863  0.15798913  0.11903071    -0.39600
O1092       O  0.24487651  0.14536274  0.12802374    -0.39600
C1093       C  0.25394634  0.25474761  0.23428773    -0.11900
C1094       C  0.23951998  0.21377198  0.22555517     0.05100
C1095       C  0.22246682  0.17318150  0.23361969    -0.07200
C1096       C  0.22063865  0.17402821  0.25002285    -0.08000
C1097       C  0.23501983  0.21504491  0.25875966    -0.02500
C1098       C  0.25208315  0.25564180  0.25069436     0.04300
N1099       N  0.26864063  0.29686592  0.25887122     0.66800
H1100       H  0.26744197  0.28618339  0.22834757     0.15700
H1101       H  0.20711026  0.14260685  0.25595173     0.15400
N1102       N  0.20574508  0.13215933  0.22543756     0.74500
O1103       O  0.29137519  0.28497741  0.26789268    -0.38900
O1104       O  0.26434677  0.34502259  0.25508588    -0.38900
O1105       O  0.21013428  0.08391227  0.22908873    -0.39600
O1106       O  0.18282484  0.14427521  0.21655335    -0.39600
C1107       C  0.46547056  0.08919354  0.37994825    -0.11900
C1108       C  0.47150528  0.14124170  0.38527829     0.05100
C1109       C  0.47894287  0.18150356  0.37421806    -0.07200
C1110       C  0.48157730  0.16842260  0.35829654    -0.08000
C1111       C  0.47649171  0.11592548  0.35298283    -0.02500
C1112       C  0.46818154  0.07599032  0.36406547     0.04300
N1113       N  0.46384834  0.02153246  0.35961671     0.66800
H1114       H  0.45972748  0.05764101  0.38831752     0.15700
H1115       H  0.48751558  0.20006696  0.35000053     0.15400
N1116       N  0.48499496  0.23522122  0.37891435     0.74500
O1117       O  0.48707359  0.99624809  0.35354637    -0.38900
O1118       O  0.43916774  0.99622273  0.36432084    -0.38900
O1119       O  0.51081717  0.25814752  0.37465357    -0.39600
O1120       O  0.46244145  0.26251855  0.38480183    -0.39600
C1121       C  0.33492486  0.11676484  0.29738889    -0.11900
C1122       C  0.32388411  0.16225142  0.30514244     0.05100
C1123       C  0.34675652  0.19824640  0.31140215    -0.07200
C1124       C  0.37976191  0.18780486  0.30978755    -0.08000
C1125       C  0.39065923  0.14159569  0.30241798    -0.02500
C1126       C  0.36795833  0.10636816  0.29573611     0.04300
N1127       N  0.37806194  0.06067948  0.28688907     0.66800
H1128       H  0.31777570  0.08997412  0.29209604     0.15700
H1129       H  0.39689808  0.21437638  0.31519274     0.15400
N1130       N  0.33699287  0.24422421  0.32011678     0.74500
O1131       O  0.36203160  0.01789443  0.28771696    -0.38900
O1132       O  0.40067046  0.06483308  0.27686798    -0.38900
O1133       O  0.32002318  0.23868071  0.33244313    -0.39600
O1134       O  0.34903221  0.28925573  0.31680769    -0.39600
C1135       C  0.48443330  0.08608113  0.12156626    -0.11900
C1136       C  0.49340653  0.04747179  0.13251390     0.05100
C1137       C  0.50042113  0.49568859  0.12727253    -0.07200
C1138       C  0.49648868  0.48252268  0.11145774    -0.08000
C1139       C  0.48646574  0.52061799  0.10049702    -0.02500
C1140       C  0.48044362  0.07309986  0.10576139     0.04300
N1141       N  0.46931693  0.11403311  0.09540681     0.66800
H1142       H  0.47882763  0.12612451  0.12543575     0.15700
H1143       H  0.50205315  0.44239441  0.10767102     0.15400
N1144       N  0.51250579  0.45591985  0.13779137     0.74500
O1145       O  0.44080941  0.11235124  0.09051314    -0.38900
O1146       O  0.48557730  0.15626293  0.09358440    -0.38900
O1147       O  0.50174081  0.40885808  0.13743206    -0.39600
O1148       O  0.53670464  0.46610118  0.14601773    -0.39600
C1149       C  0.36106075  0.20569485  0.18292233    -0.11900
C1150       C  0.33582096  0.17688501  0.17632594     0.05100
C1151       C  0.34250612  0.12543267  0.17012217    -0.07200
C1152       C  0.37350386  0.10361666  0.17133911    -0.08000
C1153       C  0.39868059  0.13263454  0.17784206    -0.02500
C1154       C  0.39223497  0.18448912  0.18360184     0.04300
N1155       N  0.41680124  0.21548722  0.19078239     0.66800
H1156       H  0.35651279  0.24472233  0.18785595     0.15700
H1157       H  0.37829457  0.06452706  0.16649798     0.15400
N1158       N  0.31857736  0.09552618  0.16197825     0.74500
O1159       O  0.43456434  0.24545155  0.18238715    -0.38900
O1160       O  0.41620680  0.22142021  0.20545848    -0.38900
O1161       O  0.30445971  0.11624976  0.15044261    -0.39600
O1162       O  0.31542667  0.04617309  0.16458170    -0.39600
C1163       C  0.48803299  0.04059272  0.23424989    -0.11900
C1164       C  0.48887777  0.08953890  0.22595013     0.05100
C1165       C  0.48847647  0.13738407  0.23451306    -0.07200
C1166       C  0.48681474  0.13503516  0.25093844    -0.08000
C1167       C  0.48610298  0.08604156  0.25916298    -0.02500
C1168       C  0.48672281  0.03848797  0.25062059     0.04300
N1169       N  0.48686181  0.98775455  0.25835049     0.66800
H1170       H  0.48861017  0.00317557  0.22798796     0.15700
H1171       H  0.48623927  0.17220878  0.25732071     0.15400
N1172       N  0.48902486  0.18850650  0.22689437     0.74500
O1173       O  0.46106313  0.96139310  0.25986332    -0.38900
O1174       O  0.51317776  0.96724594  0.26242169    -0.38900
O1175       O  0.46837445  0.22304035  0.23073023    -0.39600
O1176       O  0.51378055  0.20301363  0.21919274    -0.39600
C1177       C  0.96654765  0.33068189  0.36191441    -0.11900
C1178       C  0.97671109  0.36992866  0.35116902     0.05100
C1179       C  0.98289085  0.42230775  0.35675176    -0.07200
C1180       C  0.97915589  0.43365513  0.37271060    -0.08000
C1181       C  0.97020785  0.39381352  0.38342758    -0.02500
C1182       C  0.96331917  0.34207760  0.37788222     0.04300
N1183       N  0.95198942  0.30098145  0.38829123     0.66800
H1184       H  0.96094077  0.29084380  0.35793481     0.15700
H1185       H  0.98484223  0.47331003  0.37683131     0.15400
N1186       N  0.99380045  0.46438233  0.34653220     0.74500
O1187       O  0.92208883  0.29389655  0.39017997    -0.38900
O1188       O  0.97133033  0.26621287  0.39322451    -0.38900
O1189       O  0.97645971  0.50505495  0.34460308    -0.39600
O1190       O  0.02270953  0.46514959  0.34172343    -0.39600
C1191       C  0.07899979  0.23791060  0.30562449    -0.11900
C1192       C  0.07405030  0.29361957  0.30545247     0.05100
C1193       C  0.10124237  0.32733174  0.30551771    -0.07200
C1194       C  0.13215714  0.30496398  0.30613823    -0.08000
C1195       C  0.13704873  0.24922787  0.30637056    -0.02500
C1196       C  0.10986804  0.21556767  0.30618417     0.04300
N1197       N  0.11291498  0.15877667  0.30694031     0.66800
H1198       H  0.05859475  0.21088261  0.30559222     0.15700
H1199       H  0.15261867  0.33188362  0.30609234     0.15400
N1200       N  0.09815034  0.38411169  0.30481252     0.74500
O1201       O  0.12436382  0.13699030  0.31901558    -0.38900
O1202       O  0.09941508  0.13024979  0.29683885    -0.38900
O1203       O  0.11100900  0.41240902  0.31516466    -0.39600
O1204       O  0.08813703  0.40608013  0.29245535    -0.39600
C1205       C  0.98741908  0.23554391  0.12719168    -0.11900
C1206       C  0.99316693  0.28891274  0.13156237     0.05100
C1207       C  0.99945697  0.32706783  0.11966460    -0.07200
C1208       C  0.99825633  0.31182529  0.10390722    -0.08000
C1209       C  0.99081459  0.25914898  0.09964711    -0.02500
C1210       C  0.98616661  0.22054210  0.11146086     0.04300
N1211       N  0.97826889  0.16671414  0.10771512     0.66800
H1212       H  0.98302057  0.20502011  0.13604906     0.15700
H1213       H  0.00249529  0.34188188  0.09488453     0.15400
N1214       N  0.00630276  0.38147862  0.12325687     0.74500
O1215       O  0.99897113  0.13047794  0.10935401    -0.38900
O1216       O  0.94971540  0.15457451  0.10433336    -0.38900
O1217       O  0.03250662  0.40224704  0.11859443    -0.39600
O1218       O  0.98424515  0.41090969  0.12866002    -0.39600
C1219       C  0.09599642  0.24253587  0.17088255    -0.11900
C1220       C  0.08244531  0.27842618  0.18149062     0.05100
C1221       C  0.10288350  0.30958575  0.19095618    -0.07200
C1222       C  0.13650357  0.30477434  0.18933722    -0.08000
C1223       C  0.15007435  0.26900010  0.17864434    -0.02500
C1224       C  0.12948073  0.23813518  0.16913633     0.04300
N1225       N  0.14224826  0.20397491  0.15713964     0.66800
H1226       H  0.08046881  0.22031074  0.16317097     0.15700
H1227       H  0.15207468  0.32712138  0.19698803     0.15400
N1228       N  0.08976654  0.34464030  0.20264609     0.74500
O1229       O  0.12965275  0.15893531  0.15483123    -0.38900
O1230       O  0.16354099  0.22125379  0.14764821    -0.38900
O1231       O  0.06572258  0.33022191  0.21089257    -0.39600
O1232       O  0.10428400  0.38721553  0.20599823    -0.39600
C1233       C  0.96735988  0.29260161  0.23295995    -0.11900
C1234       C  0.98446032  0.33323821  0.22481202     0.05100
C1235       C  0.00108283  0.37188717  0.23345933    -0.07200
C1236       C  0.00089223  0.36802183  0.24982276    -0.08000
C1237       C  0.98350141  0.32777487  0.25795086    -0.02500
C1238       C  0.96628059  0.28990361  0.24935477     0.04300
N1239       N  0.94658569  0.25001427  0.25694560     0.66800
H1240       H  0.95401930  0.26298391  0.22652402     0.15700
H1241       H  0.01414341  0.39773083  0.25626765     0.15400
N1242       N  0.01854726  0.41480002  0.22600984     0.74500
O1243       O  0.92424696  0.26371531  0.26627179    -0.38900
O1244       O  0.94786877  0.20235088  0.25237427    -0.38900
O1245       O  0.00358218  0.44893514  0.21800875    -0.39600
O1246       O  0.04678489  0.42539845  0.23030994    -0.39600
C1247       C  0.72643343  0.42130354  0.36443702    -0.11900
C1248       C  0.72316356  0.38405065  0.35246170     0.05100
C1249       C  0.72124855  0.32902313  0.35654423    -0.07200
C1250       C  0.72256748  0.31286972  0.37223600    -0.08000
C1251       C  0.72520181  0.35012258  0.38420874    -0.02500
C1252       C  0.72763901  0.40514107  0.38020402     0.04300
N1253       N  0.73243581  0.44505171  0.39188652     0.66800
H1254       H  0.72848110  0.46334518  0.36153458     0.15700
H1255       H  0.72049315  0.27076880  0.37508087     0.15400
N1256       N  0.71776100  0.28862452  0.34496206     0.74500
O1257       O  0.75563521  0.44094600  0.40118941    -0.38900
O1258       O  0.71684633  0.48812605  0.39133383    -0.38900
O1259       O  0.74116158  0.25839769  0.34179637    -0.39600
O1260       O  0.69000661  0.27649967  0.34031432    -0.39600
C1261       C  0.86484447  0.32993348  0.30650863    -0.11900
C1262       C  0.88605529  0.37271807  0.30295961     0.05100
C1263       C  0.87288938  0.42279829  0.29931543    -0.07200
C1264       C  0.83944843  0.42959950  0.29980484    -0.08000
C1265       C  0.81837250  0.38714391  0.30371595    -0.02500
C1266       C  0.83137627  0.33673297  0.30686979     0.04300
N1267       N  0.81114764  0.29296399  0.31142021     0.66800
H1268       H  0.87420812  0.29086707  0.30937810     0.15700
H1269       H  0.82989942  0.46869967  0.29709899     0.15400
N1270       N  0.89297790  0.46706394  0.29501893     0.74500
O1271       O  0.80202225  0.26018327  0.30126528    -0.38900
O1272       O  0.80588556  0.28326281  0.32577434    -0.38900
O1273       O  0.90375314  0.47143458  0.28114602    -0.39600
O1274       O  0.89676688  0.50481966  0.30449364    -0.39600
C1275       C  0.63069825  0.03952126  0.30951960    -0.11900
C1276       C  0.63385459  0.98392942  0.30751540     0.05100
C1277       C  0.60572018  0.95330851  0.30571262    -0.07200
C1278       C  0.57551236  0.97821374  0.30621948    -0.08000
C1279       C  0.57243410  0.03378342  0.30825857    -0.02500
C1280       C  0.60056194  0.06445923  0.30999438     0.04300
N1281       N  0.59906064  0.12062556  0.31269616     0.66800
H1282       H  0.65185601  0.06424601  0.31098234     0.15700
H1283       H  0.55428734  0.95371872  0.30465307     0.15400
N1284       N  0.60706125  0.39694291  0.30319255     0.74500
O1285       O  0.58648276  0.13781110  0.32523492    -0.38900
O1286       O  0.61403194  0.15245271  0.30363475    -0.38900
O1287       O  0.59696203  0.36506920  0.31369679    -0.39600
O1288       O  0.61405635  0.37961010  0.28971768    -0.39600
C1289       C  0.73671683  0.07558734  0.11397986    -0.11900
C1290       C  0.73486613  0.03596703  0.10262347     0.05100
C1291       C  0.73345050  0.98176579  0.10752946    -0.07200
C1292       C  0.73450302  0.96855600  0.12348950    -0.08000
C1293       C  0.73737200  0.00815374  0.13482010    -0.02500
C1294       C  0.73790338  0.06243872  0.12992116     0.04300
N1295       N  0.73930552  0.10499970  0.14095195     0.66800
H1296       H  0.73764591  0.11720891  0.11047700     0.15700
H1297       H  0.73330455  0.42713984  0.12694796     0.15400
N1298       N  0.73000080  0.43988786  0.09649040     0.74500
O1299       O  0.76306636  0.13648619  0.14071699    -0.38900
O1300       O  0.71505809  0.11523423  0.14950579    -0.38900
O1301       O  0.75502577  0.41866417  0.09076739    -0.39600
O1302       O  0.70319055  0.41677717  0.09510217    -0.39600
C1303       C  0.62765705  0.97264753  0.18583268    -0.11900
C1304       C  0.65021528  0.01484852  0.18481595     0.05100
C1305       C  0.63861288  0.06741707  0.18363571    -0.07200
C1306       C  0.60544350  0.07606379  0.18223051    -0.08000
C1307       C  0.58295613  0.03369350  0.18251759    -0.02500
C1308       C  0.59443244  0.98147902  0.18477473     0.04300
N1309       N  0.57309500  0.43728518  0.18581358     0.66800
H1310       H  0.63594629  0.43205672  0.18708650     0.15700
H1311       H  0.59725391  0.11686606  0.18111411     0.15400
N1312       N  0.65987683  0.11248743  0.18386924     0.74500
O1313       O  0.56052836  0.41944272  0.17355281    -0.38900
O1314       O  0.57149644  0.40998764  0.19829639    -0.38900
O1315       O  0.65722071  0.14900756  0.17370928    -0.39600
O1316       O  0.67659810  0.12086349  0.19583446    -0.39600
C1317       C  0.84006713  0.36619623  0.18295083    -0.11900
C1318       C  0.83519610  0.41843908  0.17732170     0.05100
C1319       C  0.86176218  0.44728450  0.17112725    -0.07200
C1320       C  0.89240586  0.42352798  0.17101506    -0.08000
C1321       C  0.89740913  0.37132102  0.17678552    -0.02500
C1322       C  0.87071651  0.34273602  0.18300716     0.04300
N1323       N  0.87433591  0.29125969  0.19017793     0.66800
H1324       H  0.81992347  0.34391228  0.18796415     0.15700
H1325       H  0.91249913  0.44598097  0.16604369     0.15400
N1326       N  0.85799968  0.49942085  0.16430283     0.74500
O1327       O  0.89251776  0.28579660  0.20180003    -0.38900
O1328       O  0.85505880  0.25415167  0.18690647    -0.38900
O1329       O  0.87970466  0.53420681  0.16587988    -0.39600
O1330       O  0.83541513  0.50844071  0.15491701    -0.39600
C1331       C  0.74092693  0.00201346  0.23636271    -0.11900
C1332       C  0.74266165  0.45397824  0.22752043     0.05100
C1333       C  0.74017448  0.40463366  0.23533281    -0.07200
C1334       C  0.73511564  0.40335336  0.25154467    -0.08000
C1335       C  0.73277912  0.45056142  0.26036633    -0.02500
C1336       C  0.73578578  0.00075689  0.25263024     0.04300
N1337       N  0.73187698  0.04976683  0.26089362     0.66800
H1338       H  0.74214057  0.04053968  0.23052563     0.15700
H1339       H  0.73367310  0.36469514  0.25729783     0.15400
N1340       N  0.74368669  0.35554364  0.22708960     0.74500
O1341       O  0.75382040  0.08464334  0.26026675    -0.38900
O1342       O  0.70510799  0.06073790  0.26728968    -0.38900
O1343       O  0.77100067  0.34190768  0.22183013    -0.39600
O1344       O  0.72034263  0.32337149  0.22647549    -0.39600
O1345       O  0.79600193  0.48924886  0.18077840    -0.71400
O1346       O  0.70794068  0.53531984  0.18423688    -0.71600
O1347       O  0.75283296  0.50228899  0.20421659    -0.71500
O1348       O  0.75149325  0.52671368  0.16095505    -0.71500
O1349       O  0.73355464  0.94693928  0.15692010    -0.71500
O1350       O  0.73761518  0.92089916  0.20122502    -0.71500
O1351       O  0.69280976  0.45341151  0.18131982    -0.71400
O1352       O  0.77861623  0.90954236  0.17674493    -0.71600
V1353       V  0.75185417  0.51177304  0.18245870     1.35200
V1354       V  0.73609403  0.93418824  0.17910945     1.35200
C1355       C  0.80194915  0.94112778  0.17819055     0.77800
C1356       C  0.68527283  0.50127305  0.18353974     0.77900
C1357       C  0.74486266  0.95893671  0.21027019     0.77700
C1358       C  0.74117178  0.49282103  0.15152552     0.77700
O1359       O  0.67302015  0.91175182  0.30501739    -0.71400
O1360       O  0.76150153  0.86557678  0.30337111    -0.71600
O1361       O  0.71498699  0.87025425  0.32554663    -0.71500
O1362       O  0.71888560  0.90188359  0.28283936    -0.71500
O1363       O  0.73495627  0.48173219  0.28724834    -0.71500
O1364       O  0.73071934  0.94981757  0.33144673    -0.71500
O1365       O  0.77580982  0.94660629  0.30863102    -0.71400
O1366       O  0.69005184  0.49067867  0.31014656    -0.71600
V1367       V  0.71730903  0.88892973  0.30434799     1.35200
V1368       V  0.73247758  0.96604693  0.30933050     1.35200
C1369       C  0.66672289  0.46015766  0.30757791     0.77800
C1370       C  0.78376156  0.89974604  0.30537973     0.77900
C1371       C  0.72282853  0.90287676  0.33585810     0.77700
C1372       C  0.72850508  0.94601834  0.27756395     0.77700
O1373       O  0.99986622  0.84808192  0.15406563    -0.71400
O1374       O  0.99412059  0.87004594  0.19852263    -0.71600
O1375       O  0.04019338  0.84013612  0.17837062    -0.71500
O1376       O  0.95406580  0.88269782  0.17442351    -0.71500
O1377       O  0.93743220  0.80190353  0.17870980    -0.71500
O1378       O  0.02578766  0.75710236  0.18061726    -0.71500
O1379       O  0.98033171  0.78714218  0.20131447    -0.71400
O1380       O  0.98217077  0.76769161  0.15796166    -0.71600
V1381       V  0.99672648  0.85870584  0.17634714     1.35200
V1382       V  0.98171687  0.78003754  0.17954747     1.35200
C1383       C  0.99180380  0.80318364  0.14850884     0.77800
C1384       C  0.98645435  0.83121256  0.20748009     0.77900
C1385       C  0.04794528  0.79218249  0.18024859     0.77700
C1386       C  0.93088294  0.85087958  0.17655485     0.77700
O1387       O  0.03260085  0.86294779  0.30389337    -0.71400
O1388       O  0.94281441  0.90055365  0.30223408    -0.71600
O1389       O  0.98694692  0.89390537  0.32467541    -0.71500
O1390       O  0.98892270  0.87481353  0.28145821    -0.71500
O1391       O  0.97618916  0.79131993  0.28408719    -0.71500
O1392       O  0.97327035  0.81159777  0.32873942    -0.71500
O1393       O  0.93097675  0.81696926  0.30540707    -0.71400
O1394       O  0.01808416  0.78074599  0.30742468    -0.71600
V1395       V  0.98762071  0.88143431  0.30316245     1.35200
V1396       V  0.97494687  0.80171336  0.30638401     1.35200
C1397       C  0.04040957  0.81425289  0.30561485     0.77800
C1398       C  0.92155665  0.86402062  0.30346145     0.77900
C1399       C  0.97927533  0.85759153  0.33419737     0.77700
C1400       C  0.98283008  0.83096538  0.27521144     0.77700
O1401       O  0.43781531  0.56107630  0.17901664    -0.71400
O1402       O  0.52566975  0.51363689  0.18233063    -0.71600
O1403       O  0.47952831  0.54553971  0.20229264    -0.71500
O1404       O  0.48361133  0.52448777  0.15891570    -0.71500
O1405       O  0.49867043  0.60640418  0.15489724    -0.71500
O1406       O  0.49771919  0.62612438  0.19958326    -0.71500
O1407       O  0.54112535  0.59504955  0.17804702    -0.71400
O1408       O  0.45564115  0.64203701  0.17652820    -0.71600
V1409       V  0.48188133  0.53776159  0.18052076     1.35200
V1410       V  0.49789517  0.61586288  0.17728202     1.35200
C1411       C  0.43206126  0.61075130  0.17777883     0.77800
C1412       C  0.54847190  0.54738247  0.18085584     0.77900
C1413       C  0.48869794  0.58800914  0.20853905     0.77700
C1414       C  0.49219841  0.56063098  0.14944225     0.77700
O1415       O  0.53476065  0.60747516  0.30612042    -0.71400
O1416       O  0.44799334  0.65973603  0.30403562    -0.71600
O1417       O  0.49034846  0.64206758  0.32700339    -0.71500
O1418       O  0.49302930  0.62941022  0.28327267    -0.71500
O1419       O  0.47683644  0.54728447  0.28490559    -0.71500
O1420       O  0.47026981  0.56263615  0.32954689    -0.71500
O1421       O  0.43124442  0.57777887  0.30527107    -0.71400
O1422       O  0.51560535  0.52757227  0.30918144    -0.71600
V1423       V  0.49126189  0.63311470  0.30518565     1.35200
V1424       V  0.47391289  0.55534592  0.30721932     1.35200
C1425       C  0.53972406  0.55782075  0.30795527     0.77800
C1426       C  0.42486898  0.62643433  0.30382405     0.77900
C1427       C  0.47921648  0.60584709  0.33583327     0.77700
C1428       C  0.48537287  0.58707708  0.27648927     0.77700
O1429       O  0.29587129  0.74721203  0.17959991    -0.71400
O1430       O  0.20682087  0.79144045  0.18090910    -0.71600
O1431       O  0.25027085  0.76049883  0.20206431    -0.71500
O1432       O  0.25297952  0.78313739  0.15882462    -0.71500
O1433       O  0.23674014  0.70263368  0.15450459    -0.71500
O1434       O  0.23583214  0.67818358  0.19911313    -0.71500
O1435       O  0.19325772  0.70876041  0.17766511    -0.71400
O1436       O  0.27941533  0.66651579  0.17568992    -0.71600
V1437       V  0.25128668  0.76895662  0.18030491     1.35200
V1438       V  0.23676011  0.69051444  0.17682637     1.35200
C1439       C  0.30250693  0.69840507  0.17712009     0.77800
C1440       C  0.18491496  0.75646477  0.17912602     0.77900
C1441       C  0.24211760  0.71674215  0.20817474     0.77700
C1442       C  0.24435242  0.74858809  0.14919375     0.77700
O1443       O  0.17824531  0.68039648  0.30451108    -0.71400
O1444       O  0.26745426  0.63927539  0.30330536    -0.71600
O1445       O  0.22160945  0.64559885  0.32545222    -0.71500
O1446       O  0.22386337  0.66874230  0.28220120    -0.71500
O1447       O  0.23896585  0.75071947  0.28515027    -0.71500
O1448       O  0.23435691  0.72815194  0.32982859    -0.71500
O1449       O  0.28017205  0.72175433  0.30742661    -0.71400
O1450       O  0.19347970  0.76213509  0.30772686    -0.71600
V1451       V  0.22294749  0.66016349  0.30395108     1.35200
V1452       V  0.23639566  0.73917439  0.30746780     1.35200
C1453       C  0.17088247  0.72924731  0.30623490     0.77800
C1454       C  0.28903246  0.67451115  0.30539609     0.77900
C1455       C  0.22801849  0.68157310  0.33502455     0.77700
C1456       C  0.23258439  0.71219833  0.27608867     0.77700
O1457       O  0.18014172  0.92416819  0.80552824    -0.71400
O1458       O  0.26724435  0.87397099  0.80177539    -0.71600
O1459       O  0.22519774  0.88837405  0.82537184    -0.71500
O1460       O  0.22134045  0.90506226  0.78201463    -0.71500
O1461       O  0.23846722  0.98672736  0.78328332    -0.71500
O1462       O  0.24343343  0.96870202  0.82805209    -0.71500
O1463       O  0.28353968  0.95580332  0.80358273    -0.71400
O1464       O  0.19872971  0.00457688  0.80778008    -0.71600
V1465       V  0.22378883  0.89952533  0.80373941     1.35200
V1466       V  0.24064658  0.97746933  0.80566180     1.35200
C1467       C  0.17488518  0.97380678  0.80699905     0.77800
C1468       C  0.29033032  0.90732481  0.80214253     0.77900
C1469       C  0.23564192  0.92400605  0.83420641     0.77700
C1470       C  0.22867750  0.94784487  0.77513949     0.77700
O1471       O  0.27878640  0.95139856  0.67766643    -0.71400
O1472       O  0.19031694  0.99631506  0.68065728    -0.71600
O1473       O  0.23684558  0.97132595  0.70089492    -0.71500
O1474       O  0.23312486  0.98128666  0.65736067    -0.71500
O1475       O  0.21622202  0.89971576  0.65565097    -0.71500
O1476       O  0.22200307  0.88830103  0.70053623    -0.71500
O1477       O  0.17617333  0.91323007  0.68005023    -0.71400
O1478       O  0.26193477  0.86985297  0.67605925    -0.71600
V1479       V  0.23450729  0.97346247  0.67910320     1.35200
V1480       V  0.21948812  0.89428704  0.67809239     1.35200
C1481       C  0.28516074  0.90200711  0.67649012     0.77800
C1482       C  0.16806094  0.96132887  0.68073170     0.77900
C1483       C  0.23045476  0.92905538  0.70824566     0.77700
C1484       C  0.22320711  0.94391827  0.64900547     0.77700
O1485       O  0.53760363  0.85254647  0.80362309    -0.71400
O1486       O  0.44912013  0.89422696  0.80028279    -0.71600
O1487       O  0.49212013  0.89205210  0.82335210    -0.71500
O1488       O  0.49489456  0.85902215  0.78057933    -0.71500
O1489       O  0.47863007  0.77820843  0.78548605    -0.71500
O1490       O  0.47815929  0.81104804  0.82933463    -0.71500
O1491       O  0.43501950  0.81331845  0.80624183    -0.71400
O1492       O  0.52163680  0.77176999  0.80851648    -0.71600
V1493       V  0.49320999  0.87289335  0.80210948     1.35200
V1494       V  0.47873450  0.79512924  0.80735098     1.35200
C1495       C  0.54454677  0.80395357  0.80614073     0.77800
C1496       C  0.42690762  0.85992641  0.80250478     0.77900
C1497       C  0.48432286  0.85824216  0.83371323     0.77700
C1498       C  0.48696399  0.81397651  0.77559289     0.77700
O1499       O  0.42045558  0.76299700  0.68151074    -0.71400
O1500       O  0.50892285  0.71820866  0.68297402    -0.71600
O1501       O  0.46495036  0.75378200  0.70381292    -0.71500
O1502       O  0.46377890  0.72304901  0.66100791    -0.71500
O1503       O  0.47972132  0.80314223  0.65504013    -0.71500
O1504       O  0.48052370  0.83501044  0.69898631    -0.71500
O1505       O  0.52313716  0.79973077  0.67777139    -0.71400
O1506       O  0.43714358  0.84296705  0.67606776    -0.71600
V1507       V  0.46476772  0.74108841  0.68223389     1.35200
V1508       V  0.47972533  0.81868412  0.67705625     1.35200
C1509       C  0.41395415  0.81156774  0.67861428     0.77800
C1510       C  0.53113615  0.75229933  0.68030348     0.77900
C1511       C  0.47294815  0.79869514  0.70885778     0.77700
C1512       C  0.47204911  0.75653721  0.65066928     0.77700
O1513       O  0.77736340  0.69300079  0.67831243    -0.71400
O1514       O  0.68939469  0.73967492  0.68097562    -0.71600
O1515       O  0.73533717  0.71714715  0.70143186    -0.71500
O1516       O  0.73151018  0.72031109  0.65781998    -0.71500
O1517       O  0.71365703  0.63905485  0.65728931    -0.71500
O1518       O  0.72076821  0.63394863  0.70213739    -0.71500
O1519       O  0.67445896  0.65672444  0.68187234    -0.71400
O1520       O  0.76009971  0.61146176  0.67766734    -0.71600
V1521       V  0.73322445  0.71584227  0.67961652     1.35200
V1522       V  0.71771148  0.63674832  0.67971634     1.35200
C1523       C  0.78347491  0.64342393  0.67747149     0.77800
C1524       C  0.66698971  0.70515735  0.68217348     0.77900
C1525       C  0.72795328  0.67642295  0.70932580     0.77700
C1526       C  0.72055295  0.68221369  0.65007153     0.77700
O1527       O  0.68186577  0.66865221  0.80575567    -0.71400
O1528       O  0.77089215  0.62704672  0.80417146    -0.71600
O1529       O  0.72631764  0.63924668  0.82677553    -0.71500
O1530       O  0.72636898  0.65136825  0.78327370    -0.71500
O1531       O  0.73964480  0.73502207  0.78423351    -0.71500
O1532       O  0.74211846  0.72102787  0.82919072    -0.71500
O1533       O  0.78411532  0.71068593  0.80523280    -0.71400
O1534       O  0.69741795  0.75058914  0.80815468    -0.71600
V1535       V  0.72651347  0.64827130  0.80506570     1.35200
V1536       V  0.74038295  0.72787065  0.80670649     1.35200
C1537       C  0.67466543  0.71766262  0.80713581     0.77800
C1538       C  0.79258791  0.66294074  0.80398180     0.77900
C1539       C  0.73543248  0.67615182  0.83551403     0.77700
C1540       C  0.73402170  0.69362405  0.77620741     0.77700
O1541       O  0.91981490  0.50930284  0.68264536    -0.71400
O1542       O  0.00880569  0.46764528  0.68348431    -0.71600
O1543       O  0.96561550  0.50347709  0.70438217    -0.71500
O1544       O  0.96268206  0.46911869  0.66180923    -0.71500
O1545       O  0.97740613  0.54911136  0.65513248    -0.71500
O1546       O  0.98014409  0.58453586  0.69878909    -0.71500
O1547       O  0.02220710  0.54895366  0.67740508    -0.71400
O1548       O  0.93541193  0.58948036  0.67644699    -0.71600
V1549       V  0.96444583  0.48894904  0.68292433     1.35200
V1550       V  0.97838403  0.56648865  0.67701588     1.35200
C1551       C  0.91281740  0.55768056  0.67978262     0.77800
C1552       C  0.03066399  0.50223664  0.68071933     0.77900
C1553       C  0.97382442  0.54881320  0.70904616     0.77700
C1554       C  0.97013893  0.50187556  0.65113714     0.77700
O1555       O  0.04016370  0.61554775  0.80199643    -0.71400
O1556       O  0.95101119  0.65855473  0.80213429    -0.71600
O1557       O  0.99834739  0.65723311  0.82302707    -0.71500
O1558       O  0.99316489  0.62192745  0.78070310    -0.71500
O1559       O  0.97976959  0.54062611  0.78657334    -0.71500
O1560       O  0.98286907  0.57798642  0.83012462    -0.71500
O1561       O  0.93814092  0.57697488  0.80797411    -0.71400
O1562       O  0.02430029  0.53643769  0.80894401    -0.71600
V1563       V  0.99551058  0.63677504  0.80208213     1.35200
V1564       V  0.98166483  0.55955242  0.80829838     1.35200
C1565       C  0.04710897  0.56748739  0.80544541     0.77800
C1566       C  0.92936337  0.62382187  0.80526414     0.77900
C1567       C  0.99083239  0.62519173  0.83385071     0.77700
C1568       C  0.98515906  0.57634089  0.77619145     0.77700
O1569       O  0.77429205  0.74150562  0.55534749    -0.71400
O1570       O  0.68715896  0.69142789  0.55098186    -0.71600
O1571       O  0.73401730  0.72714757  0.53150166    -0.71500
O1572       O  0.72814629  0.70139306  0.57476026    -0.71500
O1573       O  0.71087753  0.78160083  0.57879744    -0.71500
O1574       O  0.71582398  0.80754719  0.53450803    -0.71500
O1575       O  0.67095735  0.77247361  0.55472476    -0.71400
O1576       O  0.75551765  0.82120504  0.55866468    -0.71600
V1577       V  0.73063552  0.71689454  0.55323461     1.35200
V1578       V  0.71372708  0.79413797  0.55662762     1.35200
C1579       C  0.77945383  0.79085528  0.55759532     0.77800
C1580       C  0.66414766  0.72463241  0.55209043     0.77900
C1581       C  0.72568937  0.77075522  0.52551332     0.77700
C1582       C  0.71821367  0.73599831  0.58423184     0.77700
O1583       O  0.66912637  0.81944665  0.43069542    -0.71400
O1584       O  0.75672416  0.86688726  0.43408074    -0.71600
O1585       O  0.71348380  0.86364450  0.41109178    -0.71500
O1586       O  0.71156639  0.82700535  0.45366003    -0.71500
O1587       O  0.72850782  0.74705428  0.44862372    -0.71500
O1588       O  0.73035145  0.78476896  0.40489675    -0.71500
O1589       O  0.77220275  0.78695054  0.42831605    -0.71400
O1590       O  0.68679048  0.74065643  0.42504051    -0.71600
V1591       V  0.71300881  0.84271488  0.43223089     1.35200
V1592       V  0.72906643  0.76636629  0.42678773     1.35200
C1593       C  0.66326564  0.77085756  0.42765510     0.77800
C1594       C  0.77950720  0.83398206  0.43179068     0.77900
C1595       C  0.72304413  0.83192623  0.40071975     0.77700
C1596       C  0.71941504  0.78161766  0.45853693     0.77700
O1597       O  0.02551804  0.90438196  0.42871479    -0.71400
O1598       O  0.93894178  0.85248199  0.43335268    -0.71600
O1599       O  0.98008835  0.86777228  0.40937327    -0.71500
O1600       O  0.98479101  0.88496509  0.45276246    -0.71500
O1601       O  0.96407663  0.96384980  0.45106751    -0.71500
O1602       O  0.96466344  0.94970402  0.40631486    -0.71500
O1603       O  0.92190626  0.93312443  0.42978426    -0.71400
O1604       O  0.00678257  0.98490354  0.42771612    -0.71600
V1605       V  0.98208064  0.87900884  0.43098245     1.35200
V1606       V  0.96481175  0.95648435  0.42872933     1.35200
C1607       C  0.03071087  0.95425321  0.42774551     0.77800
C1608       C  0.91556970  0.88476669  0.43235931     0.77900
C1609       C  0.97143908  0.90471376  0.40038316     0.77700
C1610       C  0.97406092  0.92564295  0.45953859     0.77700
O1611       O  0.91227860  0.93879602  0.55764802    -0.71400
O1612       O  0.00016342  0.98611199  0.55304708    -0.71600
O1613       O  0.95354978  0.95575266  0.53380182    -0.71500
O1614       O  0.95840265  0.97407339  0.57707093    -0.71500
O1615       O  0.97508554  0.89291288  0.58037142    -0.71500
O1616       O  0.97005474  0.87423631  0.53577559    -0.71500
O1617       O  0.01514924  0.90401620  0.55565503    -0.71400
O1618       O  0.92978640  0.85815706  0.56045702    -0.71600
V1619       V  0.95630599  0.96207273  0.55550508     1.35200
V1620       V  0.97204343  0.88380933  0.55805655     1.35200
C1621       C  0.90626470  0.88939574  0.55951948     0.77800
C1622       C  0.02271996  0.95194526  0.55330501     0.77900
C1623       C  0.96169735  0.91329913  0.52717945     0.77700
C1624       C  0.96867729  0.93838745  0.58608331     0.77700
O1625       O  0.16626455  0.59512718  0.42889951    -0.71400
O1626       O  0.25567866  0.63476527  0.43150117    -0.71600
O1627       O  0.21138095  0.63505492  0.40888281    -0.71500
O1628       O  0.20991980  0.60015080  0.45146737    -0.71500
O1629       O  0.22336963  0.51850501  0.44670085    -0.71500
O1630       O  0.22663315  0.55517022  0.40276202    -0.71500
O1631       O  0.26826030  0.55309389  0.42622932    -0.71400
O1632       O  0.18167101  0.51532696  0.42292808    -0.71600
V1633       V  0.21104114  0.61473469  0.43002995     1.35200
V1634       V  0.22456906  0.53702655  0.42472620     1.38400
C1635       C  0.15902475  0.54714158  0.42572635     0.77800
C1636       C  0.27724917  0.59944002  0.42943554     0.77900
C1637       C  0.22008780  0.60263743  0.39853539     0.77700
C1638       C  0.21652216  0.55455850  0.45660906     0.77700
O1639       O  0.27056598  0.50033795  0.55407175    -0.71400
O1640       O  0.18192424  0.96027638  0.54975382    -0.71600
O1641       O  0.22954387  0.49229423  0.53020003    -0.71500
O1642       O  0.22317732  0.46431563  0.57342550    -0.71500
O1643       O  0.21092956  0.54663857  0.57796373    -0.71500
O1644       O  0.21300968  0.57315808  0.53370558    -0.71500
O1645       O  0.16845780  0.54197770  0.55483008    -0.71400
O1646       O  0.25525442  0.58214803  0.55707793    -0.71600
V1647       V  0.22606864  0.48090500  0.55193673     1.35200
V1648       V  0.21227200  0.55944875  0.55580860     1.35200
C1649       C  0.27784200  0.54895655  0.55622838     0.77800
C1650       C  0.15993755  0.49509584  0.55185910     0.77900
C1651       C  0.22162113  0.53646034  0.52438230     0.77700
C1652       C  0.21595663  0.49987890  0.58316463     0.77700
O1653       O  0.41640363  0.67964905  0.55764926    -0.71400
O1654       O  0.50559982  0.71707067  0.55249593    -0.71600
O1655       O  0.45831961  0.68539960  0.53389070    -0.71500
O1656       O  0.46331089  0.71600718  0.57643916    -0.71500
O1657       O  0.47591351  0.63438230  0.58195045    -0.71500
O1658       O  0.47304780  0.60347924  0.53788735    -0.71500
O1659       O  0.51819614  0.63530838  0.55787916    -0.71400
O1660       O  0.43083233  0.59804448  0.56203784    -0.71600
V1661       V  0.46114213  0.69790831  0.55527853     1.35200
V1662       V  0.47414662  0.61928279  0.55990179     1.35200
C1663       C  0.40855567  0.63124896  0.56008791     0.77800
C1664       C  0.52716277  0.68179258  0.55428947     0.77900
C1665       C  0.46485106  0.64036855  0.52847098     0.77700
C1666       C  0.47104459  0.68183505  0.58653046     0.77700
O1667       O  0.52630548  0.63519927  0.43174503    -0.71400
O1668       O  0.43667406  0.59515830  0.43353237    -0.71600
O1669       O  0.48078195  0.60999565  0.41072977    -0.71500
O1670       O  0.48260480  0.61534623  0.45445347    -0.71500
O1671       O  0.46817666  0.69848807  0.45415928    -0.71500
O1672       O  0.46765760  0.69339252  0.40917663    -0.71500
O1673       O  0.42451588  0.67895420  0.43243022    -0.71400
O1674       O  0.51125005  0.71781882  0.43099109    -0.71600
V1675       V  0.48139911  0.61551684  0.43256685     1.35200
V1676       V  0.46828815  0.69557608  0.43168847     1.35200
C1677       C  0.53368069  0.68448378  0.43151940     0.77800
C1678       C  0.41527728  0.63136812  0.43332551     0.77900
C1679       C  0.47335209  0.64944569  0.40238997     0.77700
C1680       C  0.47541303  0.65672379  0.46185274     0.77700
O1681       O  0.18062198  0.88106601  0.92859818    -0.71400
O1682       O  0.27000097  0.91869655  0.93300922    -0.71600
O1683       O  0.22943530  0.91003822  0.90914244    -0.71500
O1684       O  0.22069061  0.89470746  0.95266103    -0.71500
O1685       O  0.23686780  0.81263427  0.95143456    -0.71500
O1686       O  0.24029226  0.82598984  0.90660378    -0.71500
O1687       O  0.28205186  0.83547975  0.92995310    -0.71400
O1688       O  0.19505193  0.79810425  0.92812576    -0.71600
V1689       V  0.22537178  0.89956118  0.93081523     1.35200
V1690       V  0.23817073  0.81959743  0.92905218     1.35200
C1691       C  0.17287339  0.83204616  0.92787546     0.77800
C1692       C  0.29131337  0.88238531  0.93204765     0.77900
C1693       C  0.23620041  0.87161982  0.90036142     0.77700
C1694       C  0.22860162  0.85256298  0.95960429     0.77700
O1695       O  0.28622876  0.82662695  0.05520969    -0.71400
O1696       O  0.19763813  0.78469044  0.05173826    -0.71600
O1697       O  0.24414857  0.81928857  0.03205567    -0.71500
O1698       O  0.24048412  0.78730675  0.07477352    -0.71500
O1699       O  0.22870171  0.86930467  0.08032243    -0.71500
O1700       O  0.22578452  0.89907352  0.03604387    -0.71500
O1701       O  0.18396798  0.86501530  0.05803844    -0.71400
O1702       O  0.27027316  0.90806492  0.05850338    -0.71600
V1703       V  0.24185476  0.80603534  0.05355086     1.35200
V1704       V  0.22751402  0.88390327  0.05816729     1.35200
C1705       C  0.29308936  0.87551575  0.05718796     0.77800
C1706       C  0.17560301  0.81866286  0.05448035     0.77900
C1707       C  0.23488845  0.86306660  0.02657622     0.77700
C1708       C  0.23467710  0.82202600  0.08491631     0.77700
O1709       O  0.67987306  0.61746387  0.93111639    -0.71400
O1710       O  0.76643783  0.66975363  0.93422005    -0.71600
O1711       O  0.72473381  0.65677048  0.91092500    -0.71500
O1712       O  0.72091609  0.63439987  0.95437019    -0.71500
O1713       O  0.74056237  0.55477015  0.95181476    -0.71500
O1714       O  0.74169629  0.57606716  0.90728417    -0.71500
O1715       O  0.78348330  0.58916138  0.93041305    -0.71400
O1716       O  0.69890434  0.53738902  0.92871980    -0.71600
V1717       V  0.72327834  0.64302853  0.93257211     1.35200
V1718       V  0.74072342  0.56585882  0.92957996     1.35200
C1719       C  0.67494322  0.56767071  0.92988145     0.77800
C1720       C  0.78975041  0.63728918  0.93294311     0.77900
C1721       C  0.73398026  0.62117331  0.90161720     0.77700
C1722       C  0.73039707  0.59187428  0.96061476     0.77700
O1723       O  0.72899869  0.59839398  0.08100139    -0.71400
O1724       O  0.73130692  0.62872559  0.03679610    -0.71600
O1725       O  0.68724625  0.59269138  0.05733350    -0.71500
O1726       O  0.77266831  0.63889346  0.06047150    -0.71500
O1727       O  0.79044386  0.55888542  0.05671878    -0.71500
O1728       O  0.70281076  0.51222779  0.05219503    -0.71500
O1729       O  0.74957004  0.54876362  0.03304965    -0.71400
O1730       O  0.74431290  0.51780803  0.07589385    -0.71600
V1731       V  0.73044077  0.61315436  0.05886822     1.35200
V1732       V  0.74649635  0.53596003  0.05459198     1.35200
C1733       C  0.73584006  0.55174438  0.08584010     0.77800
C1734       C  0.74097584  0.59277477  0.02745249     0.77900
C1735       C  0.68008447  0.54567266  0.05380150     0.77700
C1736       C  0.79625798  0.60798681  0.05906110     0.77700
O1737       O  0.53976355  0.92847537  0.92834012    -0.71400
O1738       O  0.44996186  0.88930787  0.93111071    -0.71600
O1739       O  0.49491288  0.89418423  0.90822036    -0.71500
O1740       O  0.49536463  0.91849905  0.95136080    -0.71500
O1741       O  0.48259191  0.00147927  0.94790446    -0.71500
O1742       O  0.48059096  0.97559468  0.90341163    -0.71500
O1743       O  0.43807760  0.97232474  0.92737814    -0.71400
O1744       O  0.52485719  0.00979505  0.92386234    -0.71600
V1745       V  0.49479076  0.90919177  0.92965509     1.35200
V1746       V  0.48187585  0.98823159  0.92569608     1.35200
C1747       C  0.54726822  0.97697632  0.92563611     0.77800
C1748       C  0.42866177  0.92541035  0.92970334     0.77900
C1749       C  0.48700608  0.92910944  0.89838277     0.77700
C1750       C  0.48935143  0.96320415  0.95716630     0.77700
O1751       O  0.43157607  0.00769154  0.05407225    -0.71400
O1752       O  0.52138094  0.04479547  0.05048096    -0.71600
O1753       O  0.47491150  0.01619242  0.03063911    -0.71500
O1754       O  0.47743197  0.04105372  0.07377118    -0.71500
O1755       O  0.49006823  0.95896401  0.07850895    -0.71500
O1756       O  0.48833307  0.93349166  0.03402590    -0.71500
O1757       O  0.53297826  0.96185491  0.05463959    -0.71400
O1758       O  0.44572177  0.92569547  0.05797173    -0.71600
V1759       V  0.47654438  0.02582949  0.05234015     1.35200
V1760       V  0.48895503  0.94655375  0.05623736     1.35200
C1761       C  0.42358106  0.95924019  0.05637103     0.77800
C1762       C  0.54254957  0.00859046  0.05191515     0.77900
C1763       C  0.48120379  0.97163963  0.02479244     0.77700
C1764       C  0.48435733  0.00563443  0.08361009     0.77700
O1765       O  0.03515293  0.69976577  0.92647654    -0.71400
O1766       O  0.94642296  0.65836220  0.93005185    -0.71600
O1767       O  0.98961342  0.66556806  0.90671056    -0.71500
O1768       O  0.99229719  0.68801157  0.94979331    -0.71500
O1769       O  0.97664371  0.76977259  0.94700935    -0.71500
O1770       O  0.97653147  0.74809179  0.90237807    -0.71500
O1771       O  0.93309152  0.74063223  0.92591511    -0.71400
O1772       O  0.01998438  0.78173853  0.92345574    -0.71600
V1773       V  0.99066388  0.67960220  0.92814489     1.35200
V1774       V  0.97691352  0.75858900  0.92471804     1.35200
C1775       C  0.04252022  0.74873180  0.92487260     0.77800
C1776       C  0.92455665  0.69326452  0.92848362     0.77900
C1777       C  0.98201148  0.70157491  0.89718840     0.77700
C1778       C  0.98456695  0.73142862  0.95598002     0.77700
O1779       O  0.93040649  0.74831672  0.05447254    -0.71400
O1780       O  0.01752402  0.79905041  0.05000059    -0.71600
O1781       O  0.97130136  0.76729382  0.03050894    -0.71500
O1782       O  0.97633313  0.78431782  0.07400943    -0.71500
O1783       O  0.99354349  0.70327318  0.07689042    -0.71500
O1784       O  0.98927634  0.68659349  0.03234490    -0.71500
O1785       O  0.03382536  0.71742308  0.05250637    -0.71400
O1786       O  0.94898305  0.66802630  0.05674936    -0.71600
V1787       V  0.97412037  0.77316673  0.05233369     1.35200
V1788       V  0.99093614  0.69535197  0.05460063     1.35200
C1789       C  0.92512371  0.69851492  0.05585882     0.77800
C1790       C  0.04054804  0.76580257  0.05044474     0.77900
C1791       C  0.97990156  0.72508930  0.02382404     0.77700
C1792       C  0.98662246  0.74808505  0.08286622     0.77700
C1793       C  0.00081395  0.69308491  0.98143086    -0.11900
C1794       C  0.98452874  0.73388372  0.97333894     0.05100
C1795       C  0.96579492  0.77023889  0.98200103    -0.07200
C1796       C  0.96357453  0.76468720  0.99835545    -0.08000
C1797       C  0.97979836  0.72365462  0.00643552    -0.02500
C1798       C  0.99818456  0.68684969  0.99770674     0.04300
N1799       N  0.01413487  0.64270152  0.00498221     0.66800
H1800       H  0.01506994  0.66425491  0.97498727     0.15700
H1801       H  0.94931038  0.79347379  0.00480844     0.15400
N1802       N  0.94841296  0.81221580  0.97447507     0.74500
O1803       O  0.99763923  0.60763199  0.01217016    -0.38900
O1804       O  0.04293638  0.63233577  0.00118379    -0.38900
O1805       O  0.91849731  0.81676297  0.97693744    -0.39600
O1806       O  0.96360671  0.84970799  0.96769769    -0.39600
C1807       C  0.46681901  0.00151499  0.98172564    -0.11900
C1808       C  0.48923518  0.96800427  0.97445165     0.05100
C1809       C  0.50800653  0.93336734  0.98387580    -0.07200
C1810       C  0.50361161  0.93277910  0.00022327    -0.08000
C1811       C  0.48153078  0.96690054  0.00749643    -0.02500
C1812       C  0.46271038  0.00112895  0.99804772     0.04300
N1813       N  0.43808644  0.03384522  0.00477711     0.66800
H1814       H  0.45151155  0.02679726  0.97467477     0.15700
H1815       H  0.51870049  0.90732830  0.00733127     0.15400
N1816       N  0.53231685  0.89970668  0.97709669     0.74500
O1817       O  0.44423031  0.08181650  0.00791963    -0.38900
O1818       O  0.40914166  0.01862278  0.00427165    -0.38900
O1819       O  0.55307661  0.91898664  0.96765474    -0.39600
O1820       O  0.53530283  0.85223599  0.98185893    -0.39600
C1821       C  0.59867116  0.97612972  0.05499047    -0.11900
C1822       C  0.57789200  0.01833581  0.05086570     0.05100
C1823       C  0.59154120  0.56793138  0.04641670    -0.07200
C1824       C  0.62503389  0.57467897  0.04703469    -0.08000
C1825       C  0.64562333  0.53284947  0.05155013    -0.02500
C1826       C  0.63218590  0.98254828  0.05518796     0.04300
N1827       N  0.65180322  0.93853567  0.05988747     0.66800
H1828       H  0.58888846  0.93751693  0.05830412     0.15700
H1829       H  0.63511936  0.61325721  0.04388212     0.15400
N1830       N  0.57210955  0.61148049  0.04114757     0.74500
O1831       O  0.64544573  0.91413646  0.07256972    -0.38900
O1832       O  0.67110803  0.91788168  0.05012426    -0.38900
O1833       O  0.57676087  0.65763859  0.04643984    -0.39600
O1834       O  0.55442327  0.60579522  0.02937540    -0.39600
C1835       C  0.85546311  0.59923009  0.05433194    -0.11900
C1836       C  0.82948844  0.63039731  0.05942857     0.05100
C1837       C  0.83530084  0.68458327  0.06324658    -0.07200
C1838       C  0.86630610  0.70626009  0.06157128    -0.08000
C1839       C  0.89220066  0.67516883  0.05639707    -0.02500
C1840       C  0.88650642  0.62094604  0.05254687     0.04300
N1841       N  0.91144508  0.58801426  0.04600077     0.66800
H1842       H  0.85138612  0.55822069  0.05096488     0.15700
H1843       H  0.87026138  0.74751131  0.06473100     0.15400
N1844       N  0.81011269  0.71829097  0.06902150     0.74500
O1845       O  0.92681216  0.60330654  0.03387591    -0.38900
O1846       O  0.91445412  0.54046932  0.05069326    -0.38900
O1847       O  0.79864499  0.71096080  0.08266771    -0.39600
O1848       O  0.80199126  0.75896850  0.06125097    -0.39600
C1849       C  0.88055718  0.62998768  0.93571214    -0.11900
C1850       C  0.88978086  0.68006409  0.92983622     0.05100
C1851       C  0.86548965  0.71770629  0.92612754    -0.07200
C1852       C  0.83295746  0.70437174  0.92832830    -0.08000
C1853       C  0.82385787  0.65376061  0.93376614    -0.02500
C1854       C  0.84804972  0.61660816  0.93787505     0.04300
N1855       N  0.84005499  0.56551788  0.94456992     0.66800
H1856       H  0.89875313  0.60124711  0.93899143     0.15700
H1857       H  0.81469081  0.73275774  0.92486693     0.15400
N1858       N  0.87319588  0.76868705  0.91937967     0.74500
O1859       O  0.85462102  0.52427678  0.93997132    -0.38900
O1860       O  0.82123507  0.56238269  0.95631111    -0.38900
O1861       O  0.88457194  0.77159178  0.90558180    -0.39600
O1862       O  0.86390581  0.81060624  0.92613334    -0.39600
C1863       C  0.61848854  0.57157256  0.92130089    -0.11900
C1864       C  0.64224901  0.54436192  0.92948617     0.05100
C1865       C  0.63530417  0.99278373  0.93574327    -0.07200
C1866       C  0.60480839  0.96986108  0.93343812    -0.08000
C1867       C  0.58090684  0.99739808  0.92530783    -0.02500
C1868       C  0.58825454  0.54859731  0.91894816     0.04300
N1869       N  0.56567805  0.57725287  0.90956821     0.66800
H1870       H  0.62391990  0.61018560  0.91607197     0.15700
H1871       H  0.59917756  0.93153454  0.93878359     0.15400
N1872       N  0.65813321  0.96458615  0.94519552     0.74500
O1873       O  0.56085559  0.62621655  0.91189379    -0.38900
O1874       O  0.55416319  0.05573514  0.89754506    -0.38900
O1875       O  0.67371002  0.98890793  0.95553524    -0.39600
O1876       O  0.65942421  0.91435746  0.94478936    -0.39600
C1877       C  0.75766826  0.56458631  0.98483396    -0.11900
C1878       C  0.73113936  0.58856764  0.97783123     0.05100
C1879       C  0.70879368  0.61732654  0.98720946    -0.07200
C1880       C  0.71412622  0.62257736  0.00330754    -0.08000
C1881       C  0.74072260  0.59859686  0.01028821    -0.02500
C1882       C  0.76309297  0.57003861  0.00087975     0.04300
N1883       N  0.79173541  0.54741510  0.00741184     0.66800
H1884       H  0.77526520  0.54373654  0.97762648     0.15700
H1885       H  0.69624332  0.64249142  0.01058973     0.15400
N1886       N  0.67993787  0.63923951  0.98069548     0.74500
O1887       O  0.80230633  0.50336241  0.00251275    -0.38900
O1888       O  0.80820401  0.57367781  0.01699173    -0.38900
O1889       O  0.66353421  0.61235409  0.97123626    -0.39600
O1890       O  0.66885920  0.68281305  0.98569769    -0.39600
C1891       C  0.13148519  0.75652419  0.04743768    -0.11900
C1892       C  0.14079687  0.80610619  0.05324257     0.05100
C1893       C  0.11654680  0.84420912  0.05691648    -0.07200
C1894       C  0.08405196  0.83174003  0.05478029    -0.08000
C1895       C  0.07484172  0.78160572  0.04943639    -0.02500
C1896       C  0.09898517  0.74408517  0.04538388     0.04300
N1897       N  0.09092596  0.69340337  0.03890293     0.66800
H1898       H  0.14956998  0.72736113  0.04419847     0.15700
H1899       H  0.06583856  0.86045565  0.05821240     0.15400
N1900       N  0.12416571  0.89498605  0.06345306     0.74500
O1901       O  0.07563891  0.69117743  0.02625973    -0.38900
O1902       O  0.10168316  0.65111165  0.04495311    -0.38900
O1903       O  0.11567492  0.93711021  0.05648964    -0.39600
O1904       O  0.13407849  0.89757220  0.07734044    -0.39600
C1905       C  0.33208518  0.95005593  0.05362746    -0.11900
C1906       C  0.32654961  0.89615788  0.05767728     0.05100
C1907       C  0.35287722  0.86421113  0.06195490    -0.07200
C1908       C  0.38398287  0.88612279  0.06139587    -0.08000
C1909       C  0.38968752  0.93978362  0.05701142    -0.02500
C1910       C  0.36316733  0.97198042  0.05318931     0.04300
N1911       N  0.36727011  0.02637964  0.04839820     0.66800
H1912       H  0.31212653  0.97530073  0.05031102     0.15700
H1913       H  0.40387883  0.86085963  0.06476229     0.15400
N1914       N  0.34847754  0.81051475  0.06755189     0.74500
O1915       O  0.37986276  0.03713990  0.03518151    -0.38900
O1916       O  0.35364126  0.06287665  0.05610341    -0.38900
O1917       O  0.36796321  0.77461882  0.06337211    -0.39600
O1918       O  0.32838200  0.80066285  0.07847173    -0.39600
C1919       C  0.38230819  0.86383010  0.93478091    -0.11900
C1920       C  0.39344576  0.91480573  0.93072517     0.05100
C1921       C  0.37048872  0.95568739  0.92794417    -0.07200
C1922       C  0.33753076  0.94471006  0.92926465    -0.08000
C1923       C  0.32638961  0.89330284  0.93269903    -0.02500
C1924       C  0.34927565  0.85238031  0.93559656     0.04300
N1925       N  0.33971812  0.79878711  0.93929417     0.66800
H1926       H  0.39935477  0.83215707  0.93705984     0.15700
H1927       H  0.32052323  0.97629423  0.92680298     0.15400
N1928       N  0.37997184  0.00824712  0.92310804     0.74500
O1929       O  0.33171280  0.76820743  0.92834091    -0.38900
O1930       O  0.34781009  0.77855068  0.95223476    -0.38900
O1931       O  0.38911057  0.01662003  0.90911283    -0.39600
O1932       O  0.37400348  0.04729212  0.93190511    -0.39600
C1933       C  0.13282688  0.75895949  0.93125304    -0.11900
C1934       C  0.13919069  0.81239530  0.92696507     0.05100
C1935       C  0.11369843  0.84395737  0.92152524    -0.07200
C1936       C  0.08266876  0.82203645  0.92061742    -0.08000
C1937       C  0.07624433  0.76872381  0.92512296    -0.02500
C1938       C  0.10184939  0.73716589  0.93051297     0.04300
N1939       N  0.09670489  0.68364110  0.93588667     0.66800
H1940       H  0.15199484  0.73384888  0.93558416     0.15700
H1941       H  0.06344961  0.84715389  0.91635133     0.15400
N1942       N  0.11906261  0.89762670  0.91639721     0.74500
O1943       O  0.10860311  0.64533650  0.92828033    -0.38900
O1944       O  0.08393075  0.67510315  0.94920523    -0.38900
O1945       O  0.12539246  0.90737176  0.90213770    -0.39600
O1946       O  0.11412402  0.93558178  0.92573002    -0.39600
C1947       C  0.20553214  0.88066264  0.98521961    -0.11900
C1948       C  0.22963031  0.85293635  0.97683302     0.05100
C1949       C  0.25699453  0.83481267  0.98478203    -0.07200
C1950       C  0.25922143  0.84295223  0.00089772    -0.08000
C1951       C  0.23452876  0.86838462  0.00941148    -0.02500
C1952       C  0.20768639  0.88816347  0.00144027     0.04300
N1953       N  0.18177270  0.91318801  0.00974958     0.66800
H1954       H  0.18481248  0.89627566  0.97913361     0.15700
H1955       H  0.28008466  0.82763830  0.00694445     0.15400
N1956       N  0.28345405  0.81062186  0.97659809     0.74500
O1957       O  0.15889687  0.88545737  0.01537214    -0.38900
O1958       O  0.18092382  0.96327893  0.01079908    -0.38900
O1959       O  0.31130119  0.83040203  0.97766747    -0.39600
O1960       O  0.28018886  0.76486833  0.97080127    -0.39600
C1961       C  0.49071223  0.61264632  0.50361897    -0.11900
C1962       C  0.46408114  0.63474899  0.51136101     0.05100
C1963       C  0.44119414  0.66411972  0.50271149    -0.07200
C1964       C  0.44677894  0.67410162  0.48673404    -0.08000
C1965       C  0.47394046  0.65357631  0.47905861    -0.02500
C1966       C  0.49604667  0.62186905  0.48753748     0.04300
N1967       N  0.52467892  0.60088308  0.48018544     0.66800
H1968       H  0.50870907  0.59158384  0.51032550     0.15700
H1969       H  0.42900471  0.69587814  0.48007820     0.15400
N1970       N  0.41212874  0.68365074  0.51003802     0.74500
O1971       O  0.54088860  0.62906342  0.47057579    -0.38900
O1972       O  0.53576477  0.55647718  0.48455637    -0.38900
O1973       O  0.39948111  0.72643072  0.50530511    -0.39600
O1974       O  0.39746672  0.65583927  0.52030530    -0.39600
C1975       C  0.31736637  0.62373253  0.55576575    -0.11900
C1976       C  0.31149907  0.56862063  0.55765110     0.05100
C1977       C  0.33769555  0.53483043  0.56085893    -0.07200
C1978       C  0.36878711  0.55652815  0.56183352    -0.08000
C1979       C  0.37464630  0.61168583  0.55994782    -0.02500
C1980       C  0.34835358  0.64536446  0.55692806     0.04300
N1981       N  0.35260190  0.70151319  0.55482615     0.66800
H1982       H  0.29769756  0.65064037  0.55325938     0.15700
H1983       H  0.38853707  0.52965402  0.56419974     0.15400
N1984       N  0.33323684  0.47882598  0.56354385     0.74500
O1985       O  0.35161967  0.72173985  0.54124798    -0.38900
O1986       O  0.35279602  0.73150086  0.56662329    -0.38900
O1987       O  0.35072747  0.44580204  0.55630459    -0.39600
O1988       O  0.31548054  0.46276525  0.57478337    -0.39600
C1989       C  0.33318734  0.56467550  0.43054927    -0.11900
C1990       C  0.31238637  0.60919956  0.43084601     0.05100
C1991       C  0.32579566  0.66023602  0.43279052    -0.07200
C1992       C  0.35915638  0.66545646  0.43442260    -0.08000
C1993       C  0.38001916  0.62109451  0.43369808    -0.02500
C1994       C  0.36656631  0.57001990  0.43202898     0.04300
N1995       N  0.38621770  0.52323691  0.43169728     0.66800
H1996       H  0.32352611  0.52482044  0.42929564     0.15700
H1997       H  0.36886877  0.70528614  0.43565065     0.15400
N1998       N  0.30638625  0.70735882  0.43242579     0.74500
O1999       O  0.40094448  0.50895969  0.44385567    -0.38900
O2000       O  0.38459357  0.49172556  0.42028131    -0.38900
O2001       O  0.30969903  0.74235582  0.44282272    -0.39600
O2002       O  0.29069287  0.71857327  0.42028724    -0.39600
C2003       C  0.20838833  0.59103889  0.48331281    -0.11900
C2004       C  0.21681698  0.54702866  0.47390634     0.05100
C2005       C  0.22750357  0.50011977  0.48130012    -0.07200
C2006       C  0.22989742  0.49847591  0.49768364    -0.08000
C2007       C  0.22151779  0.54266531  0.50705036    -0.02500
C2008       C  0.21103966  0.58967188  0.49961413     0.04300
N2009       N  0.20357936  0.63679151  0.50829602     0.66800
H2010       H  0.20041517  0.62797025  0.47797730     0.15700
H2011       H  0.23779987  0.46164934  0.50310740     0.15400
N2012       N  0.23577897  0.45380271  0.47245959     0.74500
O2013       O  0.22566811  0.66100922  0.51534962    -0.38900
O2014       O  0.17664383  0.65914803  0.50664750    -0.38900
O2015       O  0.26378992  0.43469503  0.47323577    -0.39600
O2016       O  0.21400782  0.42772441  0.46574898    -0.39600
C2017       C  0.07954554  0.92218699  0.55111781    -0.11900
C2018       C  0.05752132  0.96499681  0.55125302     0.05100
C2019       C  0.06972178  0.01746536  0.55052846    -0.07200
C2020       C  0.10308404  0.52592891  0.55062228    -0.08000
C2021       C  0.12506270  0.98275269  0.55116552    -0.02500
C2022       C  0.11285917  0.93037079  0.55127841     0.04300
N2023       N  0.13359583  0.88500820  0.55243314     0.66800
H2024       H  0.07092234  0.88138488  0.55156094     0.15700
H2025       H  0.11198354  0.56657500  0.55019202     0.15400
N2026       N  0.04885407  0.06277681  0.54968481     0.74500
O2027       O  0.15022620  0.87828800  0.56454721    -0.38900
O2028       O  0.13075948  0.84715547  0.54289953    -0.38900
O2029       O  0.05343467  0.60237739  0.55855068    -0.39600
O2030       O  0.03009290  0.06780235  0.53827290    -0.39600
C2031       C  0.06795424  0.53150906  0.43105452    -0.11900
C2032       C  0.06356879  0.97765751  0.42685646     0.05100
C2033       C  0.09048560  0.44823210  0.42185044    -0.07200
C2034       C  0.12089595  0.47229152  0.42125278    -0.08000
C2035       C  0.12551962  0.52588551  0.42562515    -0.02500
C2036       C  0.09851386  0.55555766  0.43055619     0.04300
N2037       N  0.10173575  0.60950369  0.43551137     0.66800
H2038       H  0.04757401  0.55499254  0.43503345     0.15700
H2039       H  0.14111476  0.44831845  0.41734592     0.15400
N2040       N  0.08731274  0.89396246  0.41702396     0.74500
O2041       O  0.09774761  0.64713188  0.42583953    -0.38900
O2042       O  0.10524378  0.61962544  0.44985017    -0.38900
O2043       O  0.07833760  0.88383582  0.40330010    -0.39600
O2044       O  0.09676296  0.85663758  0.42580484    -0.39600
C2045       C  0.98278943  0.87922218  0.48494213    -0.11900
C2046       C  0.97198738  0.92512326  0.47692573     0.05100
C2047       C  0.95663878  0.96560052  0.48558890    -0.07200
C2048       C  0.95181495  0.95868910  0.50175581    -0.08000
C2049       C  0.96282820  0.91296299  0.50978488    -0.02500
C2050       C  0.97816148  0.87255964  0.50113022     0.04300
N2051       N  0.98918340  0.82459667  0.50847871     0.66800
H2052       H  0.99435111  0.84720781  0.47855724     0.15700
H2053       H  0.94031609  0.99071653  0.50816296     0.15400
N2054       N  0.94602800  0.51414604  0.47832792     0.74500
O2055       O  0.96905382  0.79264724  0.51465131    -0.38900
O2056       O  0.01801778  0.80998880  0.50652305    -0.38900
O2057       O  0.91798352  0.53136789  0.48106972    -0.39600
O2058       O  0.96647528  0.54453261  0.47171588    -0.39600
C2059       C  0.83703448  0.80736226  0.42999639    -0.11900
C2060       C  0.81420599  0.84778665  0.43294929     0.05100
C2061       C  0.82534030  0.89867096  0.43712589    -0.07200
C2062       C  0.85851315  0.90852368  0.43758740    -0.08000
C2063       C  0.88129284  0.86863202  0.43400704    -0.02500
C2064       C  0.87022771  0.81684117  0.43070031     0.04300
N2065       N  0.89197257  0.77360756  0.42776135     0.66800
H2066       H  0.82914052  0.76745291  0.42717555     0.15700
H2067       H  0.86648452  0.94839129  0.44044156     0.15400
N2068       N  0.80354716  0.94098230  0.44076813     0.74500
O2069       O  0.91097370  0.75891125  0.43834627    -0.38900
O2070       O  0.88711459  0.74294126  0.41637968    -0.38900
O2071       O  0.80275734  0.95993241  0.45442479    -0.39600
O2072       O  0.78974612  0.96563775  0.42982838    -0.39600
C2073       C  0.59234595  0.67383629  0.42552239    -0.11900
C2074       C  0.56727044  0.70475367  0.43167484     0.05100
C2075       C  0.57405273  0.75757103  0.43656346    -0.07200
C2076       C  0.60500634  0.77889054  0.43435558    -0.08000
C2077       C  0.63006206  0.74840593  0.42797965    -0.02500
C2078       C  0.62348526  0.69497146  0.42360060     0.04300
N2079       N  0.64794066  0.66168477  0.41693980     0.66800
H2080       H  0.58755063  0.63355756  0.42166145     0.15700
H2081       H  0.60977404  0.81904541  0.43832464     0.15400
N2082       N  0.55018395  0.78948728  0.44439352     0.74500
O2083       O  0.65683886  0.62039616  0.42420362    -0.38900
O2084       O  0.65777239  0.66990920  0.40304765    -0.38900
O2085       O  0.53527287  0.77120827  0.45629623    -0.39600
O2086       O  0.54724238  0.83813978  0.44082916    -0.39600
C2087       C  0.60768729  0.75213269  0.54783136    -0.11900
C2088       C  0.62962913  0.71054847  0.55070668     0.05100
C2089       C  0.61758478  0.65894111  0.55356109    -0.07200
C2090       C  0.58420544  0.65048976  0.55432550    -0.08000
C2091       C  0.56220643  0.69286113  0.55241121    -0.02500
C2092       C  0.57439989  0.74402775  0.54881943     0.04300
N2093       N  0.55356305  0.78869871  0.54668883     0.66800
H2094       H  0.61639391  0.79214820  0.54537154     0.15700
H2095       H  0.57555992  0.61051634  0.55686857     0.15400
N2096       N  0.63874342  0.61532847  0.55650961     0.74500
O2097       O  0.54033483  0.81006072  0.55847850    -0.38900
O2098       O  0.55299092  0.81232675  0.53357746    -0.38900
O2099       O  0.64851330  0.60658127  0.57022275    -0.39600
O2100       O  0.64493374  0.58238809  0.54579000    -0.39600
C2101       C  0.86978315  0.81080678  0.56270892    -0.11900
C2102       C  0.87313550  0.86626077  0.56006649     0.05100
C2103       C  0.84528116  0.89616210  0.55682372    -0.07200
C2104       C  0.81539581  0.87023581  0.55603299    -0.08000
C2105       C  0.81211628  0.81487457  0.55866851    -0.02500
C2106       C  0.83978055  0.78507101  0.56218628     0.04300
N2107       N  0.83789044  0.72914342  0.56563120     0.66800
H2108       H  0.89071230  0.78682785  0.56533092     0.15700
H2109       H  0.79443580  0.89402062  0.55330415     0.15400
N2110       N  0.84672798  0.95251697  0.55407848     0.74500
O2111       O  0.85699190  0.69730566  0.55890643    -0.38900
O2112       O  0.82048245  0.71259324  0.57693793    -0.38900
O2113       O  0.83467444  0.97205709  0.54182244    -0.39600
O2114       O  0.85450194  0.98317057  0.56505456    -0.39600
C2115       C  0.69924313  0.79970826  0.50131122    -0.11900
C2116       C  0.72583098  0.77591403  0.50832537     0.05100
C2117       C  0.74910037  0.74943509  0.49886744    -0.07200
C2118       C  0.74505166  0.74756519  0.48257911    -0.08000
C2119       C  0.71868008  0.77215400  0.47557584    -0.02500
C2120       C  0.69502454  0.79732036  0.48509247     0.04300
N2121       N  0.66623904  0.81933440  0.47849127     0.66800
H2122       H  0.68071249  0.81780668  0.50860773     0.15700
H2123       H  0.76363583  0.72977589  0.47525088     0.15400
N2124       N  0.77751808  0.72630366  0.50550728     0.74500
O2125       O  0.65192778  0.79519499  0.46768880    -0.38900
O2126       O  0.65308153  0.85962525  0.48458824    -0.38900
O2127       O  0.78982334  0.68506677  0.49954468    -0.39600
O2128       O  0.79245692  0.75025696  0.51614314    -0.39600
C2129       C  0.99813576  0.71533298  0.86938882    -0.11900
C2130       C  0.97998543  0.68692543  0.88056237     0.05100
C2131       C  0.96580373  0.63769081  0.87644140    -0.07200
C2132       C  0.97095638  0.61715085  0.86139335    -0.08000
C2133       C  0.98967936  0.64484280  0.85021178    -0.02500
C2134       C  0.00365981  0.69456949  0.85436593     0.04300
N2135       N  0.02483140  0.72329748  0.84382536     0.66800
H2136       H  0.01004824  0.75195704  0.87270635     0.15700
H2137       H  0.95936348  0.58004936  0.85828033     0.15400
N2138       N  0.94581559  0.60840294  0.88741391     0.74500
O2139       O  0.02205368  0.77314118  0.84228219    -0.38900
O2140       O  0.04924581  0.70048193  0.83800128    -0.38900
O2141       O  0.92465595  0.63221503  0.89548466    -0.39600
O2142       O  0.94720439  0.55818474  0.88802425    -0.39600
C2143       C  0.98087231  0.51988968  0.62273899    -0.11900
C2144       C  0.97086649  0.48409344  0.63452842     0.05100
C2145       C  0.96260487  0.93088764  0.63023868    -0.07200
C2146       C  0.96371217  0.91564398  0.61447184    -0.08000
C2147       C  0.97301283  0.95191520  0.60274025    -0.02500
C2148       C  0.98264475  0.00405588  0.60698799     0.04300
N2149       N  0.99435105  0.54204846  0.59547728     0.66800
H2150       H  0.98811605  0.55998461  0.62578326     0.15700
H2151       H  0.95608549  0.87579850  0.61134587     0.15400
N2152       N  0.95221212  0.89225669  0.64166012     0.74500
O2153       O  0.98603841  0.59033788  0.59611774    -0.38900
O2154       O  0.01635875  0.02758084  0.58578714    -0.38900
O2155       O  0.92255767  0.88257435  0.64353593    -0.39600
O2156       O  0.97262150  0.86239303  0.64808654    -0.39600
C2157       C  0.96835310  0.51479825  0.73645250    -0.11900
C2158       C  0.97629993  0.55738553  0.72616934     0.05100
C2159       C  0.98727739  0.60547974  0.73253388    -0.07200
C2160       C  0.99014997  0.61008050  0.74876946    -0.08000
C2161       C  0.98198487  0.56764750  0.75909011    -0.02500
C2162       C  0.97075976  0.51955536  0.75273502     0.04300
N2163       N  0.96116156  0.47549209  0.76252521     0.66800
H2164       H  0.95973581  0.47732623  0.73187641     0.15700
H2165       H  0.99883570  0.64760937  0.75327772     0.15400
N2166       N  0.99591416  0.64991643  0.72274003     0.74500
O2167       O  0.93587323  0.97932676  0.77105607    -0.38900
O2168       O  0.97403101  0.43050479  0.76053773    -0.38900
O2169       O  0.97503725  0.68443545  0.71938869    -0.39600
O2170       O  0.02510018  0.65824964  0.71914369    -0.39600
C2171       C  0.73610740  0.60991014  0.85724341    -0.11900
C2172       C  0.73811624  0.66394695  0.85252882     0.05100
C2173       C  0.74067774  0.70320569  0.86414755    -0.07200
C2174       C  0.73912935  0.68795591  0.88001200    -0.08000
C2175       C  0.73591893  0.63405248  0.88465204    -0.02500
C2176       C  0.73469555  0.59463910  0.87304577     0.04300
N2177       N  0.73019574  0.53940148  0.87697955     0.66800
H2178       H  0.73445306  0.57879474  0.84854731     0.15700
H2179       H  0.74091451  0.71871646  0.88881495     0.15400
N2180       N  0.74476246  0.75838139  0.86015423     0.74500
O2181       O  0.70593977  0.52490022  0.88506973    -0.38900
O2182       O  0.74735928  0.50452588  0.87034179    -0.38900
O2183       O  0.72619096  0.79264760  0.86613389    -0.39600
O2184       O  0.77020467  0.77366178  0.85314928    -0.39600
C2185       C  0.83892662  0.60665066  0.81086495    -0.11900
C2186       C  0.82729042  0.65100574  0.80282522     0.05100
C2187       C  0.84941683  0.68759441  0.79575245    -0.07200
C2188       C  0.88264793  0.67937210  0.79728474    -0.08000
C2189       C  0.89435094  0.63522510  0.80551227    -0.02500
C2190       C  0.87200208  0.59887286  0.81261086     0.04300
N2191       N  0.88228118  0.55517615  0.82226175     0.66800
H2192       H  0.82214560  0.57953807  0.81670950     0.15700
H2193       H  0.89943395  0.70661980  0.79151630     0.15400
N2194       N  0.83862116  0.73230083  0.78660637     0.74500
O2195       O  0.90004544  0.56374059  0.83385371    -0.38900
O2196       O  0.86972429  0.50968894  0.82070904    -0.38900
O2197       O  0.85374228  0.77598963  0.78692766    -0.39600
O2198       O  0.81648427  0.72644918  0.77678935    -0.39600
C2199       C  0.70841071  0.74430592  0.62848879    -0.11900
C2200       C  0.71536038  0.69164942  0.63317758     0.05100
C2201       C  0.72085435  0.65288682  0.62162567    -0.07200
C2202       C  0.72119008  0.66838297  0.60577131    -0.08000
C2203       C  0.71557001  0.72169132  0.60112047    -0.02500
C2204       C  0.70840562  0.75953578  0.61271668     0.04300
N2205       N  0.70245859  0.81404851  0.60878670     0.66800
H2206       H  0.70374566  0.77461386  0.63723144     0.15700
H2207       H  0.72618869  0.63827054  0.59702860     0.15400
N2208       N  0.72770881  0.59863427  0.62571079     0.74500
O2209       O  0.67419359  0.82907573  0.60587394    -0.38900
O2210       O  0.72458982  0.84819213  0.61011911    -0.38900
O2211       O  0.70686932  0.57111250  0.63308209    -0.39600
O2212       O  0.75180560  0.57570661  0.61962441    -0.39600
C2213       C  0.85446653  0.54756981  0.67412828    -0.11900
C2214       C  0.87939826  0.57831097  0.68019951     0.05100
C2215       C  0.87282930  0.63125023  0.68500906    -0.07200
C2216       C  0.84186658  0.65249402  0.68316938    -0.08000
C2217       C  0.81685693  0.62194811  0.67702482    -0.02500
C2218       C  0.82349270  0.56884763  0.67226200     0.04300
N2219       N  0.79952329  0.53662814  0.66493190     0.66800
H2220       H  0.85948857  0.50754292  0.67006578     0.15700
H2221       H  0.83694397  0.69247177  0.68728987     0.15400
N2222       N  0.89688494  0.66310904  0.69246087     0.74500
O2223       O  0.78492119  0.55419703  0.65310270    -0.38900
O2224       O  0.79625628  0.48823022  0.66881012    -0.38900
O2225       O  0.89841502  0.71262645  0.68980344    -0.39600
O2226       O  0.91368821  0.64329989  0.70323651    -0.39600
C2227       C  0.74109399  0.63886203  0.73527277    -0.11900
C2228       C  0.72803517  0.68039584  0.72650270     0.05100
C2229       C  0.71899377  0.72847462  0.73403339    -0.07200
C2230       C  0.72345660  0.73386424  0.75018634    -0.08000
C2231       C  0.73605904  0.69195279  0.75899021    -0.02500
C2232       C  0.74581099  0.64439173  0.75137282     0.04300
N2233       N  0.76144421  0.60206538  0.75974513     0.66800
H2234       H  0.74913160  0.60293968  0.72943609     0.15700
H2235       H  0.71523749  0.76965279  0.75603237     0.15400
N2236       N  0.70386929  0.77112733  0.72559681     0.74500
O2237       O  0.75547511  0.55407517  0.75651682    -0.38900
O2238       O  0.78407280  0.61247109  0.76894824    -0.38900
O2239       O  0.68058206  0.76148293  0.71671146    -0.39600
O2240       O  0.71102512  0.81892555  0.72849436    -0.39600
C2241       C  0.47566878  0.68397874  0.63112270    -0.11900
C2242       C  0.47314351  0.73906217  0.63410905     0.05100
C2243       C  0.47191015  0.77482790  0.62133559    -0.07200
C2244       C  0.47264953  0.75480165  0.60605153    -0.08000
C2245       C  0.47407031  0.69954761  0.60304287    -0.02500
C2246       C  0.47652807  0.66400187  0.61582850     0.04300
N2247       N  0.47986530  0.60778764  0.61359735     0.66800
H2248       H  0.47746253  0.65586285  0.64079544     0.15700
H2249       H  0.47098747  0.78308757  0.59642066     0.15400
N2250       N  0.46822177  0.83107396  0.62357592     0.74500
O2251       O  0.50523894  0.58978020  0.60727742    -0.38900
O2252       O  0.46060238  0.57600930  0.62047432    -0.38900
O2253       O  0.48535773  0.86342053  0.61565425    -0.39600
O2254       O  0.44461863  0.84846433  0.63150111    -0.39600
C2255       C  0.57659698  0.69528585  0.68900701    -0.11900
C2256       C  0.56589582  0.73908334  0.68028966     0.05100
C2257       C  0.58899651  0.77307767  0.67278633    -0.07200
C2258       C  0.62189995  0.76348776  0.67465846    -0.08000
C2259       C  0.63256115  0.71947537  0.68321875    -0.02500
C2260       C  0.60960386  0.68519191  0.69065054     0.04300
N2261       N  0.61935034  0.64084176  0.70021170     0.66800
H2262       H  0.55921142  0.66975509  0.69504197     0.15700
H2263       H  0.63927843  0.78869947  0.66848982     0.15400
N2264       N  0.57961273  0.81576183  0.66252178     0.74500
O2265       O  0.64110995  0.64665774  0.71022877    -0.38900
O2266       O  0.60379399  0.59756770  0.69992973    -0.38900
O2267       O  0.59409004  0.86002150  0.66294706    -0.39600
O2268       O  0.56061362  0.80673866  0.65143716    -0.39600
C2269       C  0.48250063  0.93046147  0.85365856    -0.11900
C2270       C  0.48265899  0.87540116  0.85036061     0.05100
C2271       C  0.48283456  0.83896970  0.86298949    -0.07200
C2272       C  0.48424785  0.85785478  0.87835777    -0.08000
C2273       C  0.48489238  0.91288190  0.88167774    -0.02500
C2274       C  0.48351530  0.94935666  0.86908500     0.04300
N2275       N  0.48452408  0.00551026  0.87163772     0.66800
H2276       H  0.48216076  0.95941724  0.84415301     0.15700
H2277       H  0.48462183  0.82871880  0.88781447     0.15400
N2278       N  0.48221647  0.78271452  0.86047741     0.74500
O2279       O  0.51115777  0.02782729  0.87417266    -0.38900
O2280       O  0.46036207  0.03370229  0.86843246    -0.38900
O2281       O  0.50616586  0.75471820  0.86416859    -0.39600
O2282       O  0.45607964  0.76016704  0.85705841    -0.39600
C2283       C  0.58287448  0.72751447  0.80577747    -0.11900
C2284       C  0.57815623  0.78320110  0.80611758     0.05100
C2285       C  0.60544612  0.81657441  0.80673867    -0.07200
C2286       C  0.63623717  0.79397638  0.80749842    -0.08000
C2287       C  0.64098296  0.73827052  0.80722394    -0.02500
C2288       C  0.61372247  0.70494966  0.80630319     0.04300
N2289       N  0.61675668  0.64822538  0.80594900     0.66800
H2290       H  0.56236617  0.70083923  0.80516494     0.15700
H2291       H  0.65671405  0.82075792  0.80796132     0.15400
N2292       N  0.60254356  0.87337766  0.80652543     0.74500
O2293       O  0.62400368  0.62300803  0.81825494    -0.38900
O2294       O  0.60796383  0.62290006  0.79402971    -0.38900
O2295       O  0.61288534  0.90010460  0.81786363    -0.39600
O2296       O  0.59548864  0.89703225  0.79392643    -0.39600
C2297       C  0.46082470  0.77553988  0.75245238    -0.11900
C2298       C  0.48589995  0.80598664  0.75850713     0.05100
C2299       C  0.50616555  0.83579495  0.74811727    -0.07200
C2300       C  0.49996560  0.83600213  0.73200322    -0.08000
C2301       C  0.47470874  0.80589070  0.72596875    -0.02500
C2302       C  0.45474281  0.77562787  0.73635928     0.04300
N2303       N  0.42738523  0.74664932  0.73082791     0.66800
H2304       H  0.44464428  0.75400570  0.76037471     0.15700
H2305       H  0.51608308  0.85746521  0.72403747     0.15400
N2306       N  0.53376662  0.86433906  0.75365637     0.74500
O2307       O  0.42083733  0.70096427  0.73633528    -0.38900
O2308       O  0.40766389  0.76912064  0.72183270    -0.38900
O2309       O  0.55180696  0.84337801  0.76375053    -0.39600
O2310       O  0.54236195  0.90757337  0.74714501    -0.39600
C2311       C  0.21361757  0.50871559  0.62761878    -0.11900
C2312       C  0.21915030  0.95511171  0.63208807     0.05100
C2313       C  0.22127425  0.91598545  0.62037736    -0.07200
C2314       C  0.21856017  0.93150228  0.60459109    -0.08000
C2315       C  0.21426346  0.48558271  0.60010387    -0.02500
C2316       C  0.21085266  0.52410771  0.61192244     0.04300
N2317       N  0.20482798  0.57898184  0.60830346     0.66800
H2318       H  0.21112773  0.53920212  0.63649471     0.15700
H2319       H  0.22121133  0.90117814  0.59569028     0.15400
N2320       N  0.22802086  0.86130165  0.62410758     0.74500
O2321       O  0.17831478  0.59224590  0.60240441    -0.38900
O2322       O  0.22314482  0.61463130  0.61354932    -0.38900
O2323       O  0.21376827  0.82452688  0.61694306    -0.39600
O2324       O  0.25154280  0.84971114  0.63267430    -0.39600
C2325       C  0.08701217  0.53203293  0.68487876    -0.11900
C2326       C  0.06552807  0.49037772  0.68130135     0.05100
C2327       C  0.07797836  0.93953527  0.67783608    -0.07200
C2328       C  0.11132409  0.93168368  0.67801214    -0.08000
C2329       C  0.13302794  0.97358020  0.68117461    -0.02500
C2330       C  0.12048312  0.52443082  0.68470289     0.04300
N2331       N  0.14106629  0.56835759  0.68827763     0.66800
H2332       H  0.07775687  0.57123045  0.68765869     0.15700
H2333       H  0.12029619  0.89247170  0.67506630     0.15400
N2334       N  0.05748588  0.89653453  0.67322380     0.74500
O2335       O  0.15734363  0.59071051  0.67745093    -0.38900
O2336       O  0.13839134  0.59079272  0.70141938    -0.38900
O2337       O  0.03946350  0.90212167  0.66154829    -0.39600
O2338       O  0.06094840  0.85080779  0.67922680    -0.39600
C2339       C  0.32232260  0.82513680  0.67943911    -0.11900
C2340       C  0.31841836  0.88002137  0.67625020     0.05100
C2341       C  0.34612371  0.91159369  0.67360474    -0.07200
C2342       C  0.37666398  0.88815474  0.67473549    -0.08000
C2343       C  0.38060097  0.83332899  0.67811470    -0.02500
C2344       C  0.35281544  0.80169428  0.68047386     0.04300
N2345       N  0.35486410  0.74603861  0.68414047     0.66800
H2346       H  0.30141986  0.79999348  0.68160437     0.15700
H2347       H  0.39757621  0.91325620  0.67257529     0.15400
N2348       N  0.34386573  0.96672421  0.66918122     0.74500
O2349       O  0.36526873  0.73134526  0.69730043    -0.38900
O2350       O  0.34065479  0.71264531  0.67567858    -0.38900
O2351       O  0.36218372  0.00064592  0.67531098    -0.39600
O2352       O  0.32753542  0.98011656  0.65743592    -0.39600
C2353       C  0.24772750  0.93396477  0.87826923    -0.11900
C2354       C  0.23896341  0.88217926  0.88331965     0.05100
C2355       C  0.23134167  0.84373833  0.87206466    -0.07200
C2356       C  0.23143315  0.85834045  0.85618571    -0.08000
C2357       C  0.23842772  0.91100204  0.85115762    -0.02500
C2358       C  0.24754665  0.94858851  0.86239665     0.04300
N2359       N  0.25624339  0.00181068  0.85798100     0.66800
H2360       H  0.25426151  0.96385543  0.88677364     0.15700
H2361       H  0.22481149  0.82825682  0.84776855     0.15400
N2362       N  0.22161615  0.79083181  0.87652828     0.74500
O2363       O  0.23470667  0.03682120  0.85659626    -0.38900
O2364       O  0.28553773  0.01528838  0.85737565    -0.38900
O2365       O  0.19693092  0.78380267  0.88514235    -0.39600
O2366       O  0.23471207  0.75121048  0.87004381    -0.39600
C2367       C  0.34734775  0.93264545  0.79710529    -0.11900
C2368       C  0.32484050  0.89242578  0.80114295     0.05100
C2369       C  0.33618078  0.84097663  0.80472683    -0.07200
C2370       C  0.36943907  0.83136600  0.80447518    -0.08000
C2371       C  0.39204059  0.87216173  0.80101837    -0.02500
C2372       C  0.38055287  0.92310532  0.79688375     0.04300
N2373       N  0.40197832  0.96556463  0.79234214     0.66800
H2374       H  0.33911162  0.97221419  0.79398649     0.15700
H2375       H  0.37760005  0.79182542  0.80765079     0.15400
N2376       N  0.31468097  0.79887282  0.80951411     0.74500
O2377       O  0.41918285  0.96130802  0.78008006    -0.38900
O2378       O  0.39944139  0.01042152  0.79882246    -0.38900
O2379       O  0.31735980  0.75343356  0.80340636    -0.39600
O2380       O  0.29699954  0.80429136  0.82157429    -0.39600
C2381       C  0.08437107  0.99280308  0.81143254    -0.11900
C2382       C  0.08041292  0.54539095  0.80564203     0.05100
C2383       C  0.10798194  0.57387878  0.80047853    -0.07200
C2384       C  0.13840458  0.54984777  0.80150348    -0.08000
C2385       C  0.14213015  0.99725953  0.80717291    -0.02500
C2386       C  0.11469662  0.96872898  0.81235546     0.04300
N2387       N  0.11717274  0.91644662  0.81920465     0.66800
H2388       H  0.06371211  0.97019449  0.81570289     0.15700
H2389       H  0.15927993  0.57198597  0.79724651     0.15400
N2390       N  0.10564272  0.62607064  0.79364323     0.74500
O2391       O  0.13698662  0.90779866  0.83000064    -0.38900
O2392       O  0.09652366  0.88118033  0.81613898    -0.38900
O2393       O  0.12422341  0.66270404  0.79805256    -0.39600
O2394       O  0.08954199  0.63287790  0.78136268    -0.39600
C2395       C  0.25164681  0.97234636  0.74912721    -0.11900
C2396       C  0.22659014  0.94907436  0.75793094     0.05100
C2397       C  0.20318355  0.91756675  0.75031380    -0.07200
C2398       C  0.20648421  0.90772870  0.73422467    -0.08000
C2399       C  0.23181095  0.93030575  0.72546339    -0.02500
C2400       C  0.25466537  0.96303260  0.73300116     0.04300
N2401       N  0.28159384  0.98573587  0.72451053     0.66800
H2402       H  0.27006017  0.99521238  0.75495961     0.15700
H2403       H  0.18810792  0.88493408  0.72834282     0.15400
N2404       N  0.17547811  0.89667496  0.75867651     0.74500
O2405       O  0.29002242  0.53352148  0.72694049    -0.38900
O2406       O  0.29850491  0.95713899  0.71549487    -0.38900
O2407       O  0.16079106  0.92496023  0.76864576    -0.39600
O2408       O  0.16354748  0.85234022  0.75491979    -0.39600
C2409       C  0.24721491  0.62255828  0.35609829    -0.11900
C2410       C  0.22845610  0.66658681  0.35168617     0.05100
C2411       C  0.20676773  0.68868929  0.36256468    -0.07200
C2412       C  0.20420648  0.66669995  0.37767529    -0.08000
C2413       C  0.22284942  0.62231881  0.38215413    -0.02500
C2414       C  0.24492545  0.60073023  0.37124864     0.04300
N2415       N  0.26597791  0.55821447  0.37552844     0.66800
H2416       H  0.26376813  0.60494064  0.34765538     0.15700
H2417       H  0.18696794  0.68383256  0.38586898     0.15400
N2418       N  0.18549300  0.73055610  0.35804822     0.74500
O2419       O  0.26427134  0.51404316  0.36863121    -0.38900
O2420       O  0.28872865  0.56679391  0.38482174    -0.38900
O2421       O  0.15977573  0.71973624  0.35104526    -0.39600
O2422       O  0.19146193  0.77800960  0.36182911    -0.39600
C2423       C  0.25049048  0.81834448  0.12853096    -0.11900
C2424       C  0.24229534  0.76505277  0.13244437     0.05100
C2425       C  0.23043830  0.73180642  0.12059258    -0.07200
C2426       C  0.22684910  0.75257303  0.10540622    -0.08000
C2427       C  0.23560444  0.80545670  0.10154528    -0.02500
C2428       C  0.24773749  0.83859673  0.11327588     0.04300
N2429       N  0.25902012  0.89162159  0.10982341     0.66800
H2430       H  0.25989762  0.84473636  0.13736108     0.15700
H2431       H  0.21786450  0.72648673  0.09637830     0.15400
N2432       N  0.22246894  0.67700073  0.12357117     0.74500
O2433       O  0.25259520  0.92903238  0.11915686    -0.38900
O2434       O  0.27948793  0.89945735  0.09893181    -0.38900
O2435       O  0.19606293  0.65844632  0.11888444    -0.39600
O2436       O  0.24401502  0.64521903  0.12805766    -0.39600
C2437       C  0.25419594  0.75465549  0.23424608    -0.11900
C2438       C  0.23982500  0.71358474  0.22553100     0.05100
C2439       C  0.22284626  0.67294602  0.23361132    -0.07200
C2440       C  0.22099342  0.67389255  0.25001303    -0.08000
C2441       C  0.23528186  0.71504686  0.25873243    -0.02500
C2442       C  0.25231042  0.75564421  0.25065107     0.04300
N2443       N  0.26878975  0.79699162  0.25881078     0.66800
H2444       H  0.26764702  0.78611410  0.22829208     0.15700
H2445       H  0.20750678  0.64244605  0.25595282     0.15400
N2446       N  0.20620596  0.63178903  0.22544666     0.74500
O2447       O  0.29155298  0.78526399  0.26783277    -0.38900
O2448       O  0.26439644  0.84510826  0.25500977    -0.38900
O2449       O  0.21066243  0.58358844  0.22913170    -0.39600
O2450       O  0.18327752  0.64373656  0.21654833    -0.39600
C2451       C  0.46540337  0.58944575  0.37990910    -0.11900
C2452       C  0.47141234  0.64150798  0.38523602     0.05100
C2453       C  0.47883445  0.68177012  0.37417340    -0.07200
C2454       C  0.48149840  0.66866970  0.35825457    -0.08000
C2455       C  0.47645365  0.61615627  0.35294565    -0.02500
C2456       C  0.46814120  0.57622589  0.36402837     0.04300
N2457       N  0.46384352  0.52175681  0.35958263     0.66800
H2458       H  0.45966697  0.55789477  0.38827985     0.15700
H2459       H  0.48742582  0.70031218  0.34995615     0.15400
N2460       N  0.48483642  0.73551040  0.37886406     0.74500
O2461       O  0.48707848  0.49651740  0.35350447    -0.38900
O2462       O  0.43918194  0.49640233  0.36428971    -0.38900
O2463       O  0.51062026  0.75851887  0.37458534    -0.39600
O2464       O  0.46226321  0.76274203  0.38476061    -0.39600
C2465       C  0.33504939  0.61724304  0.29729987    -0.11900
C2466       C  0.32398287  0.66251503  0.30515184     0.05100
C2467       C  0.34683096  0.69839894  0.31148451    -0.07200
C2468       C  0.37984460  0.68805711  0.30984366    -0.08000
C2469       C  0.39076836  0.64205013  0.30237471    -0.02500
C2470       C  0.36809031  0.60695094  0.29561954     0.04300
N2471       N  0.37822875  0.56149923  0.28667540     0.66800
H2472       H  0.31791431  0.59056681  0.29194851     0.15700
H2473       H  0.39696608  0.71450966  0.31530798     0.15400
N2474       N  0.33703122  0.74414292  0.32029762     0.74500
O2475       O  0.36220017  0.51869617  0.28739092    -0.38900
O2476       O  0.40089145  0.56590136  0.27669197    -0.38900
O2477       O  0.31994077  0.73829063  0.33257335    -0.39600
O2478       O  0.34911220  0.78924638  0.31711897    -0.39600
C2479       C  0.48453455  0.58659872  0.12154020    -0.11900
C2480       C  0.49371076  0.54811350  0.13248326     0.05100
C2481       C  0.50000190  0.99501480  0.12729370    -0.07200
C2482       C  0.49617520  0.98196539  0.11146266    -0.08000
C2483       C  0.48636725  0.02020136  0.10049628    -0.02500
C2484       C  0.48043988  0.57350100  0.10574999     0.04300
N2485       N  0.46908777  0.61428152  0.09540271     0.66800
H2486       H  0.47883126  0.62660710  0.12540773     0.15700
H2487       H  0.50165076  0.94181078  0.10766978     0.15400
N2488       N  0.51188590  0.95509324  0.13781747     0.74500
O2489       O  0.44058163  0.61220385  0.09051971    -0.38900
O2490       O  0.48512816  0.65673911  0.09357761    -0.38900
O2491       O  0.50095824  0.90813793  0.13742884    -0.39600
O2492       O  0.53610141  0.96499007  0.14606143    -0.39600
C2493       C  0.36121962  0.70610756  0.18283980    -0.11900
C2494       C  0.33602174  0.67720144  0.17623802     0.05100
C2495       C  0.34279731  0.62580991  0.17001503    -0.07200
C2496       C  0.37382604  0.60411959  0.17123422    -0.08000
C2497       C  0.39895620  0.63321246  0.17775200    -0.02500
C2498       C  0.39243389  0.68504036  0.18351343     0.04300
N2499       N  0.41695757  0.71614711  0.19068965     0.66800
H2500       H  0.35660834  0.74510412  0.18778076     0.15700
H2501       H  0.37867471  0.56505579  0.16638835     0.15400
N2502       N  0.31892426  0.59582843  0.16185630     0.74500
O2503       O  0.43479388  0.74594285  0.18227861    -0.38900
O2504       O  0.41624858  0.72236664  0.20535462    -0.38900
O2505       O  0.30479039  0.61652459  0.15032103    -0.39600
O2506       O  0.31584125  0.54645780  0.16444851    -0.39600
C2507       C  0.48821774  0.54103051  0.23420610    -0.11900
C2508       C  0.48909603  0.59000104  0.22591959     0.05100
C2509       C  0.48867619  0.63781902  0.23449387    -0.07200
C2510       C  0.48696685  0.63542306  0.25091794    -0.08000
C2511       C  0.48621331  0.58640341  0.25912984    -0.02500
C2512       C  0.48683850  0.53887685  0.25057522     0.04300
N2513       N  0.48689338  0.48811924  0.25829156     0.66800
H2514       H  0.48879901  0.50363216  0.22793462     0.15700
H2515       H  0.48638591  0.67257899  0.25730892     0.15400
N2516       N  0.48924767  0.68895905  0.22688631     0.74500
O2517       O  0.46099795  0.46208564  0.25991921    -0.38900
O2518       O  0.51319733  0.46724344  0.26222198    -0.38900
O2519       O  0.46855792  0.72345937  0.23069770    -0.39600
O2520       O  0.51403363  0.70350088  0.21921391    -0.39600
C2521       C  0.96674931  0.83109315  0.36186071    -0.11900
C2522       C  0.97681204  0.87048570  0.35114117     0.05100
C2523       C  0.98284312  0.92286835  0.35675471    -0.07200
C2524       C  0.97909518  0.93407168  0.37272092    -0.08000
C2525       C  0.97026239  0.89408732  0.38341438    -0.02500
C2526       C  0.96350352  0.84234220  0.37783606     0.04300
N2527       N  0.95230611  0.80106888  0.38821758     0.66800
H2528       H  0.96125731  0.79124003  0.35785654     0.15700
H2529       H  0.98466502  0.97374516  0.37686346     0.15400
N2530       N  0.99358456  0.96510954  0.34655564     0.74500
O2531       O  0.92243177  0.79337442  0.38998270    -0.38900
O2532       O  0.97180954  0.76664724  0.39320696    -0.38900
O2533       O  0.97597811  0.00542642  0.34455821    -0.39600
O2534       O  0.02254396  0.96641236  0.34183078    -0.39600
C2535       C  0.07913628  0.73857458  0.30555098    -0.11900
C2536       C  0.07423478  0.79429691  0.30539811     0.05100
C2537       C  0.10145611  0.82794035  0.30547689    -0.07200
C2538       C  0.13235052  0.80549285  0.30609399    -0.08000
C2539       C  0.13719512  0.74974202  0.30631044    -0.02500
C2540       C  0.10998443  0.71615123  0.30610828     0.04300
N2541       N  0.11297886  0.65934992  0.30684438     0.66800
H2542       H  0.05870762  0.71159706  0.30550642     0.15700
H2543       H  0.15283388  0.83236558  0.30606137     0.15400
N2544       N  0.09841423  0.88473058  0.30479177     0.74500
O2545       O  0.12438671  0.63748399  0.31891689    -0.38900
O2546       O  0.09945106  0.63090223  0.29673264    -0.38900
O2547       O  0.11129396  0.91295314  0.31515520    -0.39600
O2548       O  0.08842093  0.90677561  0.29244222    -0.39600
C2549       C  0.98743066  0.73665812  0.12718692    -0.11900
C2550       C  0.99309750  0.79006291  0.13154154     0.05100
C2551       C  0.99928883  0.82822292  0.11963138    -0.07200
C2552       C  0.99812307  0.81290539  0.10387832    -0.08000
C2553       C  0.99081643  0.76015777  0.09963592    -0.02500
C2554       C  0.98625568  0.72158154  0.11146324     0.04300
N2555       N  0.97854349  0.66767610  0.10773551     0.66800
H2556       H  0.98310863  0.70613147  0.13605176     0.15700
H2557       H  0.00226320  0.84296033  0.09484525     0.15400
N2558       N  0.00595388  0.88271631  0.12320403     0.74500
O2559       O  0.99986005  0.63210491  0.10862220    -0.38900
O2560       O  0.94973717  0.65469730  0.10517194    -0.38900
O2561       O  0.03197882  0.90382287  0.11843027    -0.39600
O2562       O  0.98384707  0.91187510  0.12869019    -0.39600
C2563       C  0.09569366  0.74106813  0.17154918    -0.11900
C2564       C  0.08246348  0.77937445  0.18148613     0.05100
C2565       C  0.10319132  0.81206747  0.19032182    -0.07200
C2566       C  0.13675303  0.80655172  0.18874534    -0.08000
C2567       C  0.15003435  0.76836419  0.17871358    -0.02500
C2568       C  0.12913449  0.73583394  0.16984087     0.04300
N2569       N  0.14154074  0.69908282  0.15846303     0.66800
H2570       H  0.07998709  0.71741422  0.16429895     0.15700
H2571       H  0.15245351  0.83040786  0.19593289     0.15400
N2572       N  0.09035661  0.84940638  0.20140815     0.74500
O2573       O  0.12980281  0.65276715  0.15759744    -0.38900
O2574       O  0.16158818  0.71479108  0.14812819    -0.38900
O2575       O  0.06829623  0.83512755  0.21090900    -0.39600
O2576       O  0.10322490  0.89469560  0.20284392    -0.39600
C2577       C  0.96745495  0.79387161  0.23292560    -0.11900
C2578       C  0.98454393  0.83451813  0.22477832     0.05100
C2579       C  0.00114625  0.87320035  0.23342264    -0.07200
C2580       C  0.00099432  0.86929081  0.24978558    -0.08000
C2581       C  0.98364960  0.82898294  0.25791093    -0.02500
C2582       C  0.96640379  0.79113924  0.24931699     0.04300
N2583       N  0.94670780  0.75124508  0.25690670     0.66800
H2584       H  0.95410216  0.76426326  0.22649179     0.15700
H2585       H  0.01423167  0.89901106  0.25623272     0.15400
N2586       N  0.01850361  0.91623460  0.22597289     0.74500
O2587       O  0.92441711  0.76493969  0.26626112    -0.38900
O2588       O  0.94791354  0.70361698  0.25229949    -0.38900
O2589       O  0.00345083  0.95023939  0.21796364    -0.39600
O2590       O  0.04669400  0.92709072  0.23029065    -0.39600
C2591       C  0.72643951  0.92182938  0.36445974    -0.11900
C2592       C  0.72321539  0.88461653  0.35247103     0.05100
C2593       C  0.72127411  0.82957651  0.35653623    -0.07200
C2594       C  0.72253643  0.81336817  0.37222322    -0.08000
C2595       C  0.72514171  0.85057716  0.38420840    -0.02500
C2596       C  0.72758848  0.90561014  0.38022291     0.04300
N2597       N  0.73234299  0.94547775  0.39192167     0.66800
H2598       H  0.72849796  0.96388050  0.36157152     0.15700
H2599       H  0.72045086  0.77125757  0.37505333     0.15400
N2600       N  0.71781208  0.78921886  0.34494046     0.74500
O2601       O  0.75553580  0.94137515  0.40122832    -0.38900
O2602       O  0.71672907  0.98852908  0.39137857    -0.38900
O2603       O  0.74127470  0.75919516  0.34171451    -0.39600
O2604       O  0.69005822  0.77693653  0.34032647    -0.39600
C2605       C  0.86507646  0.83083842  0.30635539    -0.11900
C2606       C  0.88628800  0.87374007  0.30294187     0.05100
C2607       C  0.87312011  0.92395287  0.29946369    -0.07200
C2608       C  0.83967859  0.93075745  0.29999364    -0.08000
C2609       C  0.81860449  0.88817937  0.30378754    -0.02500
C2610       C  0.83161295  0.83765324  0.30677074     0.04300
N2611       N  0.81139724  0.79373988  0.31120494     0.66800
H2612       H  0.87443644  0.79166211  0.30909406     0.15700
H2613       H  0.83013138  0.96994977  0.29740608     0.15400
N2614       N  0.89320642  0.96834768  0.29529115     0.74500
O2615       O  0.80307898  0.76036066  0.30105065    -0.38900
O2616       O  0.80535618  0.78457295  0.32552137    -0.38900
O2617       O  0.90377715  0.97338364  0.28140018    -0.39600
O2618       O  0.89718862  0.00559715  0.30491718    -0.39600
C2619       C  0.63070322  0.53923133  0.30950202    -0.11900
C2620       C  0.63377252  0.48361466  0.30752250     0.05100
C2621       C  0.60558838  0.45310178  0.30574583    -0.07200
C2622       C  0.57542017  0.47813776  0.30624817    -0.08000
C2623       C  0.57242586  0.53373504  0.30825964    -0.02500
C2624       C  0.60060453  0.56430517  0.30997667     0.04300
N2625       N  0.59919732  0.62049465  0.31265961     0.66800
H2626       H  0.65190349  0.56386934  0.31094738     0.15700
H2627       H  0.55415778  0.45371681  0.30469980     0.15400
N2628       N  0.60728460  0.89717516  0.30312601     0.74500
O2629       O  0.58644073  0.63779814  0.32514230    -0.38900
O2630       O  0.61446518  0.65218506  0.30367329    -0.38900
O2631       O  0.59720687  0.86518811  0.31360500    -0.39600
O2632       O  0.61434533  0.87996446  0.28964487    -0.39600
C2633       C  0.73730152  0.57580096  0.11399682    -0.11900
C2634       C  0.73488025  0.53629336  0.10263684     0.05100
C2635       C  0.73306848  0.48210633  0.10752633    -0.07200
C2636       C  0.73428879  0.46878049  0.12347554    -0.08000
C2637       C  0.73774005  0.50823510  0.13480959    -0.02500
C2638       C  0.73871120  0.56252169  0.12992194     0.04300
N2639       N  0.74084571  0.60497236  0.14094909     0.66800
H2640       H  0.73858639  0.61741267  0.11050562     0.15700
H2641       H  0.73388395  0.92691319  0.12697627     0.15400
N2642       N  0.73101165  0.93941008  0.09649922     0.74500
O2643       O  0.76554262  0.63439422  0.14099890    -0.38900
O2644       O  0.71651660  0.61730036  0.14918874    -0.38900
O2645       O  0.75634281  0.91860015  0.09096863    -0.39600
O2646       O  0.70438440  0.91592589  0.09488088    -0.39600
C2647       C  0.62782320  0.47285844  0.18581619    -0.11900
C2648       C  0.65044766  0.51494960  0.18476644     0.05100
C2649       C  0.63893290  0.56755887  0.18354514    -0.07200
C2650       C  0.60577337  0.57635314  0.18214976    -0.08000
C2651       C  0.58321637  0.53408371  0.18247824    -0.02500
C2652       C  0.59461384  0.48182941  0.18475943     0.04300
N2653       N  0.57298075  0.93684281  0.18580540     0.66800
H2654       H  0.63584391  0.93187287  0.18707756     0.15700
H2655       H  0.59765016  0.61718245  0.18100107     0.15400
N2656       N  0.66028513  0.61251796  0.18370854     0.74500
O2657       O  0.56045966  0.91900024  0.17353373    -0.38900
O2658       O  0.57141212  0.90948060  0.19827666    -0.38900
O2659       O  0.65779475  0.64875728  0.17345078    -0.39600
O2660       O  0.67695017  0.62111549  0.19567863    -0.39600
C2661       C  0.84010246  0.86715175  0.18298298    -0.11900
C2662       C  0.83514084  0.91932058  0.17731906     0.05100
C2663       C  0.86165435  0.94824354  0.17109954    -0.07200
C2664       C  0.89233848  0.92461509  0.17098788    -0.08000
C2665       C  0.89742338  0.87246730  0.17678515    -0.02500
C2666       C  0.87078487  0.84382686  0.18304331     0.04300
N2667       N  0.87449415  0.79244254  0.19026153     0.66800
H2668       H  0.82000278  0.84482524  0.18802272     0.15700
H2669       H  0.91239465  0.94710633  0.16599514     0.15400
N2670       N  0.85779737  0.00032356  0.16425187     0.74500
O2671       O  0.89275813  0.78716463  0.20185982    -0.38900
O2672       O  0.85521585  0.75525499  0.18706479    -0.38900
O2673       O  0.87944315  0.03522227  0.16580894    -0.39600
O2674       O  0.83517770  0.00919645  0.15487433    -0.39600
C2675       C  0.74094448  0.50126762  0.23634973    -0.11900
C2676       C  0.74280476  0.95470188  0.22754992     0.05100
C2677       C  0.74055167  0.90535879  0.23537988    -0.07200
C2678       C  0.73550846  0.90410512  0.25159210    -0.08000
C2679       C  0.73299234  0.95132348  0.26039726    -0.02500
C2680       C  0.73577106  0.49999359  0.25261392     0.04300
N2681       N  0.73206364  0.54901117  0.26089200     0.66800
H2682       H  0.74233423  0.53980983  0.23052965     0.15700
H2683       H  0.73423588  0.86546083  0.25736160     0.15400
N2684       N  0.74428178  0.85625981  0.22715530     0.74500
O2685       O  0.75424044  0.58349114  0.26036291    -0.38900
O2686       O  0.70528733  0.56039925  0.26721301    -0.38900
O2687       O  0.77147887  0.84359414  0.22153644    -0.39600
O2688       O  0.72137012  0.82315396  0.22691367    -0.39600
loop_ 
_geom_bond_atom_site_label_1 
_geom_bond_atom_site_label_2 
_geom_bond_distance 
_geom_bond_site_symmetry_2 
_ccdc_geom_bond_type 
O1            V9   1.923   1_565  S
O1         C1355   1.272       .  A
O2            V9   1.923       .  S
O2           C12   1.272       .  A
O3            V9   1.870       .  S
O3         C1357   1.256   1_545  A
O4            V9   1.869       .  S
O4           C14   1.255   1_545  A
O5           V10   1.922       .  S
O5         C1358   1.272       .  A
O6           V10   1.915       .  S
O6           C13   1.271       .  A
O7         V1354   1.875       .  S
O7           C12   1.257   1_565  A
O8           V10   1.881       .  S
O8           C11   1.258       .  A
V9         V1354   2.083   1_545  T
V10        O1351   1.875       .  S
V10        V1353   2.083       .  T
C11        O1345   1.272       .  A
C11        C1318   1.486       .  S
C12        C1304   1.490       .  S
C13        O1347   1.256       .  A
C13        C1332   1.478       .  S
C14        O1349   1.272       .  A
C14        C1293   1.483   1_565  S
O15          V23   1.928       .  S
O15        C1369   1.273       .  A
O16          V23   1.929       .  S
O16          C26   1.274       .  A
O17          V23   1.865       .  S
O17          C27   1.253       .  A
O18          V23   1.861       .  S
O18          C28   1.254       .  A
O19        V1368   1.923       .  S
O19        C1372   1.272       .  A
O20          V24   1.926       .  S
O20          C27   1.274       .  A
O21          V24   1.866       .  S
O21          C26   1.255       .  A
O22        V1368   1.871       .  S
O22          C25   1.256       .  A
V23          V24   2.083       .  T
V24        O1363   1.923       .  S
V24        O1366   1.871       .  S
C25        O1359   1.273       .  A
C25        C1276   1.491       .  S
C26        C1265   1.481       .  S
C27        C1248   1.486       .  S
C28        O1363   1.272       .  A
C28        C1335   1.478       .  S
O29          V37   1.924       .  S
O29          C39   1.272       .  A
O30          V37   1.917       .  S
O30          C40   1.270       .  A
O31          V37   1.876   1_455  S
O31          C41   1.256       .  A
O32          V37   1.881       .  S
O32          C42   1.259       .  A
O33          V38   1.923       .  S
O33          C42   1.272       .  A
O34          V38   1.924   1_455  S
O34          C41   1.272       .  A
O35          V38   1.867       .  S
O35          C40   1.256       .  A
O36          V38   1.869       .  S
O36          C39   1.256       .  A
V37          V38   2.083       .  T
C39        C1206   1.487       .  S
C40        C1234   1.480       .  S
C41        C1220   1.474       .  S
C42        C1321   1.493       .  S
O43          V51   1.928   1_455  S
O43          C53   1.273       .  A
O44          V51   1.925       .  S
O44          C54   1.273       .  A
O45          V51   1.864       .  S
O45          C55   1.253       .  A
O46          V51   1.860       .  S
O46          C56   1.254       .  A
O47          V52   1.922       .  S
O47          C56   1.272       .  A
O48          V52   1.925       .  S
O48          C55   1.274       .  A
O49          V52   1.870       .  S
O49          C54   1.256       .  A
O50          V52   1.872   1_455  S
O50          C53   1.257       .  A
V51          V52   2.082       .  T
C53        C1192   1.492       .  S
C54        C1262   1.487       .  S
C55        C1178   1.486       .  S
C56        C1237   1.477       .  S
O57          V65   1.929       .  S
O57          C67   1.274       .  A
O58          V65   1.927       .  S
O58          C68   1.273       .  A
O59          V65   1.870       .  S
O59          C69   1.257       .  A
O60          V65   1.876       .  S
O60          C70   1.257       .  A
O61          V66   1.926       .  S
O61          C70   1.273       .  A
O62          V66   1.921       .  S
O62          C69   1.271       .  A
O63          V66   1.873       .  S
O63          C68   1.257       .  A
O64          V66   1.877       .  S
O64          C67   1.256       .  A
V65          V66   2.083       .  T
C67        C1153   1.487       .  S
C68        C1307   1.490       .  S
C69        C1164   1.484       .  S
C70        C1136   1.483       .  S
O71          V79   1.922       .  S
O71          C81   1.272       .  A
O72          V79   1.922       .  S
O72          C82   1.272       .  A
O73          V79   1.876       .  S
O73          C83   1.258       .  A
O74          V79   1.872       .  S
O74          C84   1.257       .  A
O75          V80   1.917       .  S
O75          C84   1.271       .  A
O76          V80   1.918       .  S
O76          C83   1.271       .  A
O77          V80   1.870       .  S
O77          C82   1.256       .  A
O78          V80   1.878       .  S
O78          C81   1.258       .  A
V79          V80   2.083       .  T
C81        C1279   1.488       .  S
C82        C1125   1.477       .  S
C83        C1111   1.487       .  S
C84        C1167   1.481       .  S
O85          V93   1.932       .  S
O85          C95   1.275       .  A
O86          V93   1.932       .  S
O86          C96   1.274       .  A
O87          V93   1.866       .  S
O87          C97   1.255       .  A
O88          V93   1.864       .  S
O88          C98   1.255       .  A
O89          V94   1.925       .  S
O89          C98   1.273       .  A
O90          V94   1.923       .  S
O90          C97   1.273       .  A
O91          V94   1.865       .  S
O91          C96   1.254       .  A
O92          V94   1.874       .  S
O92          C95   1.255       .  A
V93          V94   2.083       .  T
C95        C1150   1.492       .  S
C96        C1223   1.479       .  S
C97        C1094   1.483       .  S
C98        C1080   1.488       .  S
O99         V107   1.926       .  S
O99         C109   1.274       .  A
O100        V107   1.922       .  S
O100        C110   1.273       .  A
O101        V107   1.867       .  S
O101        C111   1.253       .  A
O102        V107   1.866       .  S
O102        C112   1.255       .  A
O103        V108   1.924       .  S
O103        C112   1.273       .  A
O104        V108   1.925       .  S
O104        C111   1.272       .  A
O105        V108   1.871       .  S
O105        C110   1.255       .  A
O106        V108   1.875       .  S
O106        C109   1.257       .  A
V107        V108   2.084       .  T
C109       C1195   1.492       .  S
C110       C1122   1.483       .  S
C111       C1066   1.467       .  S
C112       C1097   1.484       .  S
O113        V121   1.921       .  S
O113        C123   1.272       .  A
O114        V121   1.922       .  S
O114        C124   1.272       .  A
O115        V121   1.866       .  S
O115        C125   1.255       .  A
O116        V121   1.861       .  S
O116        C126   1.253       .  A
O117        V122   1.925       .  S
O117        C126   1.272       .  A
O118        V122   1.926       .  S
O118        C125   1.273       .  A
O119        V122   1.870       .  S
O119        C124   1.256       .  A
O120        V122   1.877       .  S
O120        C123   1.257       .  A
V121        V122   2.084       .  T
C123       C1041   1.483       .  S
C124       C1024   1.483       .  S
C125       C1013   1.486       .  S
C126       C1052   1.472       .  S
O127        V135   1.924       .  S
O127        C137   1.273       .  A
O128        V135   1.927       .  S
O128        C138   1.273       .  A
O129        V135   1.863       .  S
O129        C139   1.253       .  A
O130        V135   1.865       .  S
O130        C140   1.255       .  A
O131        V136   1.925       .  S
O131        C140   1.272       .  A
O132        V136   1.923       .  S
O132        C139   1.272       .  A
O133        V136   1.867       .  S
O133        C138   1.256       .  A
O134        V136   1.874       .  S
O134        C137   1.257       .  A
V135        V136   2.084       .  T
C137        C996   1.489       .  S
C138        C985   1.488       .  S
C139       C1055   1.471       .  S
C140        C968   1.480       .  S
O141        V149   1.920       .  S
O141        C151   1.271       .  A
O142        V149   1.917       .  S
O142        C152   1.271       .  A
O143        V149   1.878       .  S
O143        C153   1.258       .  A
O144        V149   1.872       .  S
O144        C154   1.256       .  A
O145        V150   1.916       .  S
O145        C154   1.270       .  A
O146        V150   1.920       .  S
O146        C153   1.272       .  A
O147        V150   1.877       .  S
O147        C152   1.258       .  A
O148        V150   1.881       .  S
O148        C151   1.259       .  A
V149        V150   2.083       .  T
C151        C940   1.491       .  S
C152       C1027   1.488       .  S
C153        C926   1.488       .  S
C154        C954   1.474       .  S
O155        V163   1.924       .  S
O155        C165   1.272       .  A
O156        V163   1.925       .  S
O156        C166   1.273       .  A
O157        V163   1.871       .  S
O157        C167   1.256       .  A
O158        V163   1.871       .  S
O158        C168   1.256       .  A
O159        V164   1.921       .  S
O159        C168   1.272       .  A
O160        V164   1.919       .  S
O160        C167   1.271       .  A
O161        V164   1.868       .  S
O161        C166   1.255       .  A
O162        V164   1.875       .  S
O162        C165   1.258       .  A
V163        V164   2.084       .  T
C165        C999   1.491       .  S
C166        C912   1.482       .  S
C167        C957   1.475       .  S
C168        C898   1.483       .  S
O169        V177   1.924       .  S
O169        C179   1.273       .  A
O170        V177   1.919       .  S
O170        C180   1.272       .  A
O171        V177   1.865       .  S
O171        C181   1.254       .  A
O172        V177   1.864       .  S
O172        C182   1.255       .  A
O173        V178   1.924       .  S
O173        C182   1.271       .  A
O174        V178   1.919       .  S
O174        C181   1.271       .  A
O175        V178   1.873       .  S
O175        C180   1.256       .  A
O176        V178   1.879       .  S
O176        C179   1.257       .  A
V177        V178   2.085       .  T
C179        C873   1.489       .  S
C180        C915   1.476       .  S
C181        C884   1.469       .  S
C182        C856   1.477       .  S
O183        V191   1.925       .  S
O183        C193   1.273       .  A
O184        V191   1.920       .  S
O184        C194   1.272       .  A
O185        V191   1.863       .  S
O185        C195   1.255       .  A
O186        V191   1.860       .  S
O186        C196   1.253       .  A
O187        V192   1.924       .  S
O187        C196   1.272       .  A
O188        V192   1.926       .  S
O188        C195   1.273       .  A
O189        V192   1.870       .  S
O189        C194   1.255       .  A
O190        V192   1.877       .  S
O190        C193   1.258       .  A
V191        V192   2.084       .  T
C193        C943   1.493       .  S
C194        C842   1.475       .  S
C195        C828   1.487       .  S
C196        C887   1.470       .  S
O197        V205   1.924   1_545  S
O197        C207   1.272       .  A
O198        V205   1.921   1_455  S
O198        C208   1.272   1_565  A
O199        V205   1.870   1_545  S
O199        C209   1.257       .  A
O200        V205   1.875       .  S
O200        C210   1.256   1_565  A
O201        V206   1.921       .  S
O201        C210   1.273       .  A
O202        V206   1.918       .  S
O202        C209   1.271       .  A
O203        V206   1.874   1_455  S
O203        C208   1.256       .  A
O204        V206   1.878       .  S
O204        C207   1.258       .  A
V205        V206   2.084   1_565  T
C207        C870   1.483       .  S
C208        C982   1.480   1_545  S
C209        C814   1.483       .  S
C210        C800   1.489   1_545  S
O211        V219   1.931   1_455  S
O211        C221   1.274       .  A
O212        V219   1.928       .  S
O212        C222   1.274       .  A
O213        V219   1.868       .  S
O213        C223   1.254       .  A
O214        V219   1.868       .  S
O214        C224   1.256       .  A
O215        V220   1.920       .  S
O215        C224   1.271       .  A
O216        V220   1.923       .  S
O216        C223   1.273       .  A
O217        V220   1.861       .  S
O217        C222   1.253       .  A
O218        V220   1.866   1_455  S
O218        C221   1.255       .  A
V219        V220   2.082       .  T
C221       C1038   1.492       .  S
C222        C845   1.482       .  S
C223        C789   1.484       .  S
C224        C817   1.485       .  S
O225        V233   1.925       .  S
O225        C235   1.273       .  A
O226        V233   1.927       .  S
O226        C236   1.273       .  A
O227        V233   1.872       .  S
O227        C237   1.256       .  A
O228        V233   1.875       .  S
O228        C238   1.257       .  A
O229        V234   1.916       .  S
O229        C238   1.271       .  A
O230        V234   1.914       .  S
O230        C237   1.270       .  A
O231        V234   1.866       .  S
O231        C236   1.256       .  A
O232        V234   1.873       .  S
O232        C235   1.257       .  A
V233        V234   2.085       .  T
C235        C761   1.487       .  S
C236        C744   1.482       .  S
C237        C772   1.471       .  S
C238        C859   1.484       .  S
O239        V247   1.919       .  S
O239        C249   1.273       .  A
O240        V247   1.922       .  S
O240        C250   1.271       .  A
O241        V247   1.873       .  S
O241        C251   1.256       .  A
O242        V247   1.867       .  S
O242        C252   1.255       .  A
O243        V248   1.920       .  S
O243        C252   1.270       .  A
O244        V248   1.920       .  S
O244        C251   1.272       .  A
O245        V248   1.870       .  S
O245        C250   1.257       .  A
O246        V248   1.877       .  S
O246        C249   1.256       .  A
V247        V248   2.084       .  T
C249        C733   1.488       .  S
C250        C716   1.486       .  S
C251       C1251   1.481       .  S
C252        C775   1.470       .  S
O253        V261   1.918   1_455  S
O253        C263   1.271       .  A
O254        V261   1.916       .  S
O254        C264   1.270       .  A
O255        V261   1.870       .  S
O255        C265   1.255       .  A
O256        V261   1.870       .  S
O256        C266   1.257       .  A
O257        V262   1.916       .  S
O257        C266   1.270       .  A
O258        V262   1.921       .  S
O258        C265   1.272       .  A
O259        V262   1.875       .  S
O259        C264   1.258       .  A
O260        V262   1.882   1_455  S
O260        C263   1.258       .  A
V261        V262   2.083       .  T
C263        C688   1.485       .  S
C264        C719   1.483       .  S
C265       C1181   1.476       .  S
C266        C702   1.484       .  S
O267        V275   1.923       .  S
O267        C277   1.272       .  A
O268        V275   1.925   1_455  S
O268        C278   1.272       .  A
O269        V275   1.865       .  S
O269        C279   1.255       .  A
O270        V275   1.870       .  S
O270        C280   1.256       .  A
O271        V276   1.925       .  S
O271        C280   1.272       .  A
O272        V276   1.921       .  S
O272        C279   1.272       .  A
O273        V276   1.867   1_455  S
O273        C278   1.256       .  A
O274        V276   1.875       .  S
O274        C277   1.257       .  A
V275        V276   2.083       .  T
C277        C758   1.492       .  S
C278        C674   1.488       .  S
C279        C705   1.484       .  S
C280        C803   1.477       .  S
O281        V289   1.926       .  S
O281        C291   1.273       .  A
O282        V289   1.925       .  S
O282        C292   1.273       .  A
O283        V289   1.870       .  S
O283        C293   1.255       .  A
O284        V289   1.861       .  S
O284        C294   1.255       .  A
O285        V290   1.927       .  S
O285        C294   1.273       .  A
O286        V290   1.925       .  S
O286        C293   1.273       .  A
O287        V290   1.864       .  S
O287        C292   1.254       .  A
O288        V290   1.870       .  S
O288        C291   1.257       .  A
V289        V290   2.083       .  T
C291        C691   1.489       .  S
C292        C646   1.486       .  S
C293       C1069   1.480       .  S
C294        C660   1.486       .  S
O295        V303   1.922   1_545  S
O295        C305   1.272       .  A
O296       V1647   1.918       .  S
O296       C1650   1.271       .  A
O297        V303   1.876       .  S
O297        C307   1.257   1_565  A
O298        V303   1.878       .  S
O298        C308   1.258       .  A
O299        V304   1.914       .  S
O299        C308   1.270   1_545  A
O300        V304   1.913       .  S
O300        C307   1.270       .  A
O301        V304   1.874       .  S
O301        C306   1.257   1_545  A
O302        V304   1.877       .  S
O302        C305   1.258       .  A
V303       O1640   1.918       .  S
V303        V304   2.082   1_565  T
C305        C632   1.488       .  S
C306       O1640   1.271       .  A
C306       C2021   1.485       .  S
C307        C663   1.485       .  S
C308        C971   1.486       .  S
O309        V317   1.919       .  S
O309        C319   1.271       .  A
O310        V317   1.917       .  S
O310        C320   1.271       .  A
O311        V317   1.859       .  S
O311        C321   1.253       .  A
O312        V317   1.868       .  S
O312        C322   1.256       .  A
O313        V318   1.924       .  S
O313        C322   1.272       .  A
O314        V318   1.924       .  S
O314        C321   1.271       .  A
O315        V318   1.877       .  S
O315        C320   1.257       .  A
O316        V318   1.880       .  S
O316        C319   1.259       .  A
V317        V318   2.083       .  T
C319        C635   1.490       .  S
C320        C747   1.487       .  S
C321        C618   1.468       .  S
C322        C901   1.488       .  S
O323        V331   1.928       .  S
O323        C333   1.273       .  A
O324        V331   1.925       .  S
O324        C334   1.273       .  A
O325        V331   1.870       .  S
O325        C335   1.256       .  A
O326        V331   1.868       .  S
O326        C336   1.254       .  A
O327        V332   1.919       .  S
O327        C336   1.271       .  A
O328        V332   1.922       .  S
O328        C335   1.271       .  A
O329        V332   1.864       .  S
O329        C334   1.255       .  A
O330        V332   1.868       .  S
O330        C333   1.255       .  A
V331        V332   2.084       .  T
C333        C730   1.484       .  S
C334        C649   1.486       .  S
C335       C1108   1.482       .  S
C336        C621   1.469       .  S
O337        V345   1.927       .  S
O337        C347   1.273       .  A
O338        V345   1.925       .  S
O338        C348   1.274       .  A
O339        V345   1.870       .  S
O339        C349   1.256       .  A
O340        V345   1.873       .  S
O340        C350   1.255       .  A
O341        V346   1.915       .  S
O341        C350   1.270       .  A
O342        V346   1.921       .  S
O342        C349   1.272       .  A
O343        V346   1.867       .  S
O343        C348   1.253       .  A
O344        V346   1.872       .  S
O344        C347   1.257       .  A
V345        V346   2.084       .  T
C347        C590   1.485       .  S
C348        C579   1.483       .  S
C349       C1010   1.478       .  S
C350        C604   1.471       .  S
O351        V359   1.920       .  S
O351        C361   1.272       .  A
O352        V359   1.920       .  S
O352        C362   1.273       .  A
O353        V359   1.861       .  S
O353        C363   1.254       .  A
O354        V359   1.866       .  S
O354        C364   1.254       .  A
O355        V360   1.923       .  S
O355        C364   1.273       .  A
O356        V360   1.924       .  S
O356        C363   1.271       .  A
O357        V360   1.868       .  S
O357        C362   1.254       .  A
O358        V360   1.875       .  S
O358        C361   1.257       .  A
V359        V360   2.084       .  T
C361        C562   1.483       .  S
C362        C548   1.484       .  S
C363        C607   1.469       .  S
C364       C1083   1.476       .  S
O365        V373   1.918       .  S
O365        C375   1.271       .  A
O366        V373   1.919       .  S
O366        C376   1.271       .  A
O367        V373   1.875       .  S
O367        C377   1.257       .  A
O368        V373   1.871       .  S
O368        C378   1.256       .  A
O369        V374   1.914       .  S
O369        C378   1.270       .  A
O370        V374   1.916       .  S
O370        C377   1.271       .  A
O371        V374   1.871       .  S
O371        C376   1.256       .  A
O372        V374   1.879       .  S
O372        C375   1.257       .  A
V373        V374   2.086       .  T
C375        C520   1.478       .  S
C376        C509   1.477       .  S
C377        C831   1.481       .  S
C378        C534   1.471       .  S
O379        V387   1.920       .  S
O379        C389   1.272       .  A
O380        V387   1.919       .  S
O380        C390   1.270       .  A
O381        V387   1.871       .  S
O381        C391   1.256       .  A
O382        V387   1.874       .  S
O382        C392   1.256       .  A
O383        V388   1.924       .  S
O383        C392   1.273       .  A
O384        V388   1.922       .  S
O384        C391   1.271       .  A
O385        V388   1.865       .  S
O385        C390   1.255       .  A
O386        V388   1.870       .  S
O386        C389   1.254       .  A
V387        V388   2.084       .  T
C389       C1290   1.481       .  S
C390        C537   1.470       .  S
C391        C481   1.482       .  S
C392        C492   1.489       .  S
O393        V401   1.929       .  S
O393        C403   1.274       .  A
O394        V401   1.928       .  S
O394        C404   1.274       .  A
O395        V401   1.870       .  S
O395        C405   1.256       .  A
O396        V401   1.869       .  S
O396        C406   1.254       .  A
O397        V402   1.926       .  S
O397        C406   1.273       .  A
O398        V402   1.931       .  S
O398        C405   1.274       .  A
O399        V402   1.864       .  S
O399        C404   1.253       .  A
O400        V402   1.867       .  S
O400        C403   1.255       .  A
V401        V402   2.083       .  T
C403        C523   1.486       .  S
C404        C576   1.487       .  S
C405        C929   1.489       .  S
C406        C464   1.480       .  S
O407        V415   1.924       .  S
O407        C417   1.272       .  A
O408        V415   1.924       .  S
O408        C418   1.273       .  A
O409        V415   1.871       .  S
O409        C419   1.255       .  A
O410        V415   1.872       .  S
O410        C420   1.255       .  A
O411        V416   1.929       .  S
O411        C420   1.275       .  A
O412        V416   1.926       .  S
O412        C419   1.273       .  A
O413        V416   1.869       .  S
O413        C418   1.256       .  A
O414        V416   1.872       .  S
O414        C417   1.257       .  A
V415        V416   2.082       .  T
C417        C565   1.488       .  S
C418        C478   1.488       .  S
C419        C467   1.481       .  S
C420       C1139   1.493       .  S
O421        V429   1.917   1_455  S
O421        C431   1.271       .  A
O422        V429   1.915       .  S
O422        C432   1.271       .  A
O423        V429   1.866       .  S
O423        C433   1.254       .  A
O424        V429   1.863       .  S
O424        C434   1.255       .  A
O425        V430   1.924       .  S
O425        C434   1.272       .  A
O426        V430   1.926       .  S
O426        C433   1.272       .  A
O427        V430   1.874       .  S
O427        C432   1.256       .  A
O428        V430   1.880   1_455  S
O428        C431   1.258       .  A
V429        V430   2.084       .  T
C431        C593   1.487       .  S
C432        C506   1.483       .  S
C433        C786   1.472       .  S
C434        C450   1.482       .  S
O435        V443   1.923       .  S
O435        C445   1.273       .  A
O436        V443   1.921   1_455  S
O436        C446   1.272       .  A
O437        V443   1.874       .  S
O437        C447   1.257       .  A
O438        V443   1.876       .  S
O438        C448   1.257       .  A
O439        V444   1.918       .  S
O439        C448   1.271       .  A
O440        V444   1.915       .  S
O440        C447   1.270       .  A
O441        V444   1.869   1_455  S
O441        C446   1.255       .  A
O442        V444   1.876       .  S
O442        C445   1.257       .  A
V443        V444   2.085       .  T
C445        C495   1.486       .  S
C446        C551   1.478       .  S
C447        C453   1.484       .  S
C448       C1209   1.477       .  S
C449        C450   1.410   1_455  A
C449        C454   1.398   1_455  A
C449        H456   1.084       .  S
C450        C451   1.407       .  A
C451        C452   1.402       .  A
C451        N458   1.432       .  S
C452        C453   1.413   1_556  A
C452        H457   1.084   1_556  S
C453        C454   1.410   1_554  A
C454        N455   1.434   1_656  S
N455        O459   1.262   1_455  A
N455        O460   1.262       .  A
N458        O462   1.262       .  A
N458        O461   1.262       .  A
C463        C464   1.398       .  A
C463        C468   1.400       .  A
C463        H470   1.085       .  S
C464        C465   1.422       .  A
C465        C466   1.403   1_556  A
C465        N472   1.436       .  S
C466        C467   1.398       .  A
C466        H471   1.085       .  S
C467        C468   1.418   1_554  A
C468        N469   1.429   1_556  S
N469        O473   1.262       .  A
N469        O474   1.262       .  A
N472        O476   1.263       .  A
N472        O475   1.263       .  A
C477        C478   1.414       .  A
C477        C482   1.401       .  A
C477        H484   1.083       .  S
C478       C1823   1.410       .  A
C479        C480   1.403       .  A
C479       C1822   1.410       .  A
C479        N486   1.434       .  S
C480        C481   1.411       .  A
C480        H485   1.084       .  S
C481       C1826   1.406   1_545  A
C482       C1825   1.406       .  A
C482        N483   1.433       .  S
N483        O487   1.262       .  A
N483        O488   1.262       .  A
N486        O490   1.262       .  A
N486        O489   1.262       .  A
C491        C492   1.400       .  A
C491        C496   1.404       .  A
C491        H498   1.084       .  S
C492        C493   1.422       .  A
C493        C494   1.401       .  A
C493        N500   1.431       .  S
C494        C495   1.398       .  A
C494        H499   1.085       .  S
C495        C496   1.423       .  A
C496        N497   1.436       .  S
N497        O501   1.263       .  A
N497        O502   1.263       .  A
N500        O504   1.262       .  A
N500        O503   1.262       .  A
C505        C506   1.399       .  A
C505        C510   1.399       .  A
C505        H512   1.084       .  S
C506        C507   1.422       .  A
C507        C508   1.400       .  A
C507        N514   1.432       .  S
C508        C509   1.397       .  A
C508        H513   1.085       .  S
C509        C510   1.419       .  A
C510        N511   1.435       .  S
N511        O515   1.262       .  A
N511        O516   1.262       .  A
N514        O518   1.262       .  A
N514        O517   1.262       .  A
C519        C520   1.395       .  A
C519        C524   1.398       .  A
C519        H526   1.085       .  S
C520       C1865   1.421   1_545  A
C521        C522   1.407       .  A
C521       C1864   1.421       .  A
C521        N528   1.438       .  S
C522        C523   1.401       .  A
C522        H527   1.084       .  S
C523       C1868   1.422       .  A
C524       C1867   1.422   1_545  A
C524        N525   1.433       .  S
N525        O529   1.262       .  A
N525       O1874   1.261       .  A
N528        O532   1.263       .  A
N528        O531   1.263       .  A
O530       N1869   1.261       .  A
C533        C534   1.397       .  A
C533        C538   1.398   1_556  A
C533        H540   1.086       .  S
C534        C535   1.418       .  A
C535        C536   1.401   1_556  A
C535        N542   1.438       .  S
C536        C537   1.398       .  A
C536        H541   1.086       .  S
C537        C538   1.418       .  A
C538        N539   1.438       .  S
N539        O543   1.263       .  A
N539        O544   1.263       .  A
N542        O546   1.263       .  A
N542        O545   1.263       .  A
C547        C548   1.399       .  A
C547        C552   1.398       .  A
C547        H554   1.084       .  S
C548        C549   1.424       .  A
C549        C550   1.399       .  A
C549        N556   1.432       .  S
C550        C551   1.396       .  A
C550        H555   1.085       .  S
C551        C552   1.418       .  A
C552        N553   1.432       .  S
N553        O557   1.262       .  A
N553        O558   1.262       .  A
N556        O560   1.262       .  A
N556        O559   1.262       .  A
C561        C562   1.411       .  A
C561        C566   1.402       .  A
C561        H568   1.084       .  S
C562        C563   1.409       .  A
C563        C564   1.402       .  A
C563        N570   1.436       .  S
C564        C565   1.413       .  A
C564        H569   1.084       .  S
C565        C566   1.409       .  A
C566        N567   1.431       .  S
N567        O571   1.262       .  A
N567        O572   1.262       .  A
N570        O574   1.263       .  A
N570        O573   1.262       .  A
C575        C576   1.398       .  A
C575        C580   1.401       .  A
C575        H582   1.084       .  S
C576        C577   1.424       .  A
C577        C578   1.398       .  A
C577        N584   1.431       .  S
C578        C579   1.396       .  A
C578        H583   1.085       .  S
C579        C580   1.424       .  A
C580        N581   1.432       .  S
N581        O585   1.262       .  A
N581        O586   1.262       .  A
N584        O588   1.262       .  A
N584        O587   1.262       .  A
C589        C590   1.410       .  A
C589        C594   1.399       .  A
C589        H596   1.084       .  S
C590        C591   1.406       .  A
C591        C592   1.403       .  A
C591        N598   1.428       .  S
C592        C593   1.412       .  A
C592        H597   1.084       .  S
C593        C594   1.409       .  A
C594        N595   1.430       .  S
N595        O599   1.262       .  A
N595        O600   1.262       .  A
N598        O602   1.262       .  A
N598        O601   1.262       .  A
C603        C604   1.409       .  A
C603        C608   1.402   1_556  A
C603        H610   1.085       .  S
C604        C605   1.407       .  A
C605        C606   1.396   1_556  A
C605        N612   1.432       .  S
C606        C607   1.405       .  A
C606        H611   1.085       .  S
C607        C608   1.405       .  A
C608        N609   1.429       .  S
N609        O613   1.262       .  A
N609        O614   1.262       .  A
N612        O616   1.262       .  A
N612        O615   1.262       .  A
C617        C618   1.397       .  A
C617        C622   1.403       .  A
C617        H624   1.085       .  S
C618        C619   1.417       .  A
C619        C620   1.399       .  A
C619        N626   1.439       .  S
C620        C621   1.397       .  A
C620        H625   1.085       .  S
C621        C622   1.420       .  A
C622        N623   1.439       .  S
N623        O627   1.263       .  A
N623        O628   1.263       .  A
N626        O630   1.263       .  A
N626        O629   1.263       .  A
C631        C632   1.411       .  A
C631        C636   1.401       .  A
C631        H638   1.084       .  S
C632        C633   1.410       .  A
C633        C634   1.404       .  A
C633        N640   1.433   1_545  S
C634        C635   1.412       .  A
C634        H639   1.084       .  S
C635        C636   1.408       .  A
C636        N637   1.429       .  S
N637        O641   1.262       .  A
N637        O642   1.262       .  A
N640        O644   1.262       .  A
N640        O643   1.262       .  A
C645        C646   1.414       .  A
C645        C650   1.400       .  A
C645        H652   1.083       .  S
C646        C647   1.407       .  A
C647        C648   1.400       .  A
C647        N654   1.434       .  S
C648        C649   1.414       .  A
C648        H653   1.083       .  S
C649        C650   1.406       .  A
C650        N651   1.432       .  S
N651        O655   1.262       .  A
N651        O656   1.262   1_545  A
N654        O658   1.262       .  A
N654        O657   1.262       .  A
C659        C660   1.412       .  A
C659        C664   1.397       .  A
C659        H666   1.084       .  S
C660        C661   1.407   1_545  A
C661        C662   1.403       .  A
C661        N668   1.431       .  S
C662        C663   1.413   1_565  A
C662        H667   1.084       .  S
C663        C664   1.408       .  A
C664        N665   1.433       .  S
N665        O669   1.262       .  A
N665        O670   1.262       .  A
N668        O672   1.262       .  A
N668        O671   1.262       .  A
C673        C674   1.413       .  A
C673        C678   1.398       .  A
C673        H680   1.084       .  S
C674        C675   1.410       .  A
C675       C2020   1.403       .  A
C675        N682   1.434       .  S
C676       C2019   1.403       .  A
C676       C2021   1.412   1_545  A
C676        H681   1.084       .  S
C677       C1650   1.485       .  S
C677        C678   1.407       .  A
C677       C2020   1.412       .  A
C678        N679   1.433       .  S
N679        O683   1.263       .  A
N679        O684   1.262       .  A
N682        O686   1.262       .  A
N682       O2029   1.262       .  A
O685       N2026   1.262       .  A
C687        C692   1.404       .  A
C687       C2032   1.411   1_545  A
C687        H694   1.084       .  S
C688       C2031   1.411       .  A
C688       C2033   1.406       .  A
C689        C690   1.398       .  A
C689       C2032   1.406       .  A
C689       N2040   1.429       .  S
C690        C691   1.412   1_565  A
C690        H695   1.084       .  S
C691        C692   1.409       .  A
C692        N693   1.428       .  S
N693        O697   1.262       .  A
N693        O698   1.262       .  A
N696       C2033   1.429       .  S
N696        O700   1.262       .  A
N696        O699   1.262       .  A
C701        C702   1.413       .  A
C701        C706   1.400       .  A
C701        H708   1.083       .  S
C702        C703   1.409       .  A
C703        C704   1.399       .  A
C703       N2054   1.434       .  S
C704        C705   1.412       .  A
C704        H709   1.084       .  S
C705        C706   1.407       .  A
C706        N707   1.432       .  S
N707        O711   1.262       .  A
N707        O712   1.262   1_655  A
N710       C2047   1.434   1_545  S
N710        O714   1.263       .  A
N710        O713   1.262       .  A
C715        C716   1.412       .  A
C715        C720   1.401       .  A
C715        H722   1.083       .  S
C716        C717   1.408       .  A
C717        C718   1.400       .  A
C717        N724   1.430       .  S
C718        C719   1.411       .  A
C718        H723   1.084       .  S
C719        C720   1.410       .  A
C720        N721   1.435       .  S
N721        O725   1.262       .  A
N721        O726   1.262       .  A
N724        O728   1.262       .  A
N724        O727   1.262       .  A
C729        C730   1.398       .  A
C729        C734   1.403       .  A
C729        H736   1.085       .  S
C730        C731   1.422       .  A
C731        C732   1.400       .  A
C731        N738   1.436       .  S
C732        C733   1.399       .  A
C732        H737   1.085       .  S
C733        C734   1.422       .  A
C734        N735   1.430       .  S
N735        O739   1.262       .  A
N735        O740   1.262       .  A
N738        O742   1.263       .  A
N738        O741   1.263       .  A
C743        C744   1.410       .  A
C743        C748   1.398       .  A
C743        H750   1.084       .  S
C744        C745   1.405       .  A
C745        C746   1.402       .  A
C745        N752   1.429       .  S
C746        C747   1.414       .  A
C746        H751   1.084       .  S
C747        C748   1.408       .  A
C748        N749   1.430       .  S
N749        O753   1.262       .  A
N749        O754   1.262       .  A
N752        O756   1.262       .  A
N752        O755   1.262       .  A
C757        C758   1.414       .  A
C757        C762   1.403       .  A
C757        H764   1.084       .  S
C758        C759   1.410       .  A
C759        C760   1.402       .  A
C759        N766   1.433       .  S
C760        C761   1.411       .  A
C760        H765   1.084       .  S
C761        C762   1.408       .  A
C762        N763   1.433       .  S
N763        O767   1.262       .  A
N763        O768   1.262       .  A
N766        O770   1.262       .  A
N766        O769   1.262       .  A
C771        C772   1.397       .  A
C771        C776   1.399       .  A
C771        H778   1.085       .  S
C772        C773   1.419       .  A
C773        C774   1.403       .  A
C773        N780   1.439       .  S
C774        C775   1.399       .  A
C774        H779   1.085       .  S
C775        C776   1.417       .  A
C776        N777   1.439       .  S
N777        O781   1.263       .  A
N777        O782   1.263       .  A
N780        O784   1.263       .  A
N780        O783   1.263       .  A
C785        C786   1.395       .  A
C785        C790   1.403   1_655  A
C785        H792   1.084   1_655  S
C786        C787   1.417       .  A
C787        C788   1.401       .  A
C787        N794   1.437       .  S
C788        C789   1.399       .  A
C788        H793   1.084       .  S
C789        C790   1.425   1_655  A
C790        N791   1.435       .  S
N791        O795   1.263       .  A
N791        O796   1.263       .  A
N794        O798   1.263       .  A
N794        O797   1.262       .  A
C799        C800   1.400   1_545  A
C799       C2148   1.401       .  A
C799        H806   1.084       .  S
C800       C2145   1.423       .  A
C801        C802   1.401       .  A
C801       C2144   1.423       .  A
C801        N808   1.429       .  S
C802        C803   1.396       .  A
C802        H807   1.085       .  S
C803        C804   1.419       .  A
C804       C2143   1.401       .  A
C804       N2149   1.436       .  S
N805       C2148   1.436       .  S
N805        O809   1.263       .  A
N805       O2154   1.262   1_655  A
N808        O812   1.262       .  A
N808        O811   1.262       .  A
O810       N2149   1.262   1_455  A
C813        C814   1.412       .  A
C813        C818   1.400       .  A
C813        H820   1.083   1_545  S
C814        C815   1.405       .  A
C815        C816   1.398       .  A
C815        N822   1.429       .  S
C816        C817   1.413       .  A
C816        H821   1.083       .  S
C817        C818   1.409       .  A
C818        N819   1.432   1_545  S
N819       O2167   1.262       .  A
N819        O824   1.262       .  A
N822        O826   1.262   1_655  A
N822        O825   1.262       .  A
O823       N2163   1.262       .  A
C827        C828   1.413       .  A
C827        C832   1.398       .  A
C827        H834   1.084       .  S
C828        C829   1.408       .  A
C829        C830   1.403       .  A
C829        N836   1.432       .  S
C830        C831   1.412       .  A
C830        H835   1.085       .  S
C831        C832   1.407       .  A
C832        N833   1.435       .  S
N833        O837   1.263       .  A
N833        O838   1.262       .  A
N836        O840   1.262       .  A
N836        O839   1.262       .  A
C841        C842   1.394       .  A
C841        C846   1.398       .  A
C841        H848   1.085       .  S
C842        C843   1.421       .  A
C843        C844   1.404       .  A
C843        N850   1.438       .  S
C844        C845   1.399       .  A
C844        H849   1.084       .  S
C845        C846   1.424       .  A
C846        N847   1.436       .  S
N847        O851   1.263       .  A
N847        O852   1.263       .  A
N850        O854   1.263       .  A
N850        O853   1.263       .  A
C855        C856   1.409       .  A
C855        C860   1.395       .  A
C855        H862   1.085       .  S
C856        C857   1.406       .  A
C857        C858   1.404       .  A
C857        N864   1.433       .  S
C858        C859   1.413       .  A
C858        H863   1.084       .  S
C859        C860   1.406       .  A
C860        N861   1.429       .  S
N861        O865   1.262       .  A
N861        O866   1.262       .  A
N864        O868   1.262       .  A
N864        O867   1.262       .  A
C869        C870   1.398       .  A
C869        C874   1.405       .  A
C869        H876   1.085       .  S
C870        C871   1.420       .  A
C871        C872   1.404       .  A
C871        N878   1.437       .  S
C872        C873   1.400       .  A
C872        H877   1.085       .  S
C873        C874   1.423       .  A
C874        N875   1.435       .  S
N875        O879   1.263       .  A
N875        O880   1.263   1_545  A
N878        O882   1.263       .  A
N878        O881   1.263       .  A
C883        C884   1.394       .  A
C883        C888   1.398       .  A
C883        H890   1.084       .  S
C884        C885   1.420       .  A
C885        C886   1.401       .  A
C885        N892   1.437       .  S
C886        C887   1.395       .  A
C886        H891   1.084       .  S
C887        C888   1.421       .  A
C888        N889   1.437       .  S
N889        O893   1.263       .  A
N889        O894   1.262       .  A
N892        O896   1.262       .  A
N892        O895   1.262       .  A
C897        C898   1.412       .  A
C897        C902   1.401       .  A
C897        H904   1.085       .  S
C898        C899   1.407       .  A
C899        C900   1.401       .  A
C899        N906   1.434       .  S
C900        C901   1.414       .  A
C900        H905   1.084       .  S
C901        C902   1.408       .  A
C902        N903   1.432       .  S
N903        O907   1.262       .  A
N903        O908   1.262       .  A
N906        O910   1.263       .  A
N906        O909   1.262       .  A
C911        C912   1.399       .  A
C911        C916   1.404       .  A
C911        H918   1.085       .  S
C912        C913   1.422       .  A
C913        C914   1.400       .  A
C913        N920   1.437       .  S
C914        C915   1.396       .  A
C914        H919   1.085       .  S
C915        C916   1.420       .  A
C916        N917   1.437       .  S
N917        O921   1.263       .  A
N917        O922   1.263       .  A
N920        O924   1.263       .  A
N920        O923   1.263       .  A
C925        C926   1.413       .  A
C925        C930   1.404       .  A
C925        H932   1.084       .  S
C926        C927   1.407       .  A
C927        C928   1.400       .  A
C927        N934   1.430       .  S
C928        C929   1.412       .  A
C928        H933   1.084       .  S
C929        C930   1.407       .  A
C930        N931   1.428       .  S
N931        O935   1.261       .  A
N931        O936   1.262       .  A
N934        O938   1.262       .  A
N934        O937   1.262       .  A
C939        C940   1.412       .  A
C939        C944   1.403       .  A
C939        H946   1.084       .  S
C940        C941   1.409       .  A
C941        C942   1.403       .  A
C941        N948   1.431       .  S
C942        C943   1.413       .  A
C942        H947   1.084       .  S
C943        C944   1.409       .  A
C944        N945   1.430       .  S
N945        O949   1.262       .  A
N945        O950   1.262       .  A
N948        O952   1.262       .  A
N948        O951   1.262       .  A
C953        C954   1.398       .  A
C953        C958   1.400       .  A
C953        H960   1.085       .  S
C954        C955   1.419       .  A
C955        C956   1.402       .  A
C955        N962   1.438       .  S
C956        C957   1.398       .  A
C956        H961   1.085       .  S
C957        C958   1.418       .  A
C958        N959   1.436       .  S
N959        O963   1.263       .  A
N959        O964   1.262       .  A
N962        O966   1.263       .  A
N962        O965   1.263       .  A
C967        C972   1.397       .  A
C967       C2312   1.410   1_545  A
C967        H974   1.085       .  S
C968        C969   1.409       .  A
C968       C2311   1.410       .  A
C969        C970   1.405       .  A
C969        N976   1.436       .  S
C970       C2315   1.414       .  A
C970        H975   1.084       .  S
C971        C972   1.409   1_565  A
C971       C2314   1.414       .  A
C972        N973   1.432       .  S
N973        O977   1.262       .  A
N973        O978   1.262       .  A
N976        O980   1.262       .  A
N976        O979   1.262       .  A
C981        C982   1.411   1_545  A
C981        C986   1.403       .  A
C981        H988   1.084       .  S
C982       C2327   1.406       .  A
C983        C984   1.400       .  A
C983       C2326   1.406       .  A
C983        N990   1.434       .  S
C984        C985   1.414       .  A
C984        H989   1.083       .  S
C985       C2330   1.409       .  A
C986       C2329   1.409   1_545  A
C986        N987   1.431       .  S
N987        O991   1.262       .  A
N987        O992   1.262       .  A
N990        O994   1.262       .  A
N990        O993   1.263       .  A
C995        C996   1.412       .  A
C995       C1000   1.402       .  A
C995       H1002   1.084       .  S
C996        C997   1.409       .  A
C997        C998   1.404       .  A
C997       N1004   1.435       .  S
C998        C999   1.414       .  A
C998       H1003   1.084       .  S
C999       C1000   1.409       .  A
C1000      N1001   1.432       .  S
N1001      O1005   1.262       .  A
N1001      O1006   1.262       .  A
N1004      O1008   1.263       .  A
N1004      O1007   1.262       .  A
C1009      C1010   1.411       .  A
C1009      C1014   1.400       .  A
C1009      H1016   1.085       .  S
C1010      C1011   1.406       .  A
C1011      C1012   1.400       .  A
C1011      N1018   1.433       .  S
C1012      C1013   1.414       .  A
C1012      H1017   1.084       .  S
C1013      C1014   1.406       .  A
C1014      N1015   1.428       .  S
N1015      O1019   1.262       .  A
N1015      O1020   1.262       .  A
N1018      O1022   1.262       .  A
N1018      O1021   1.263       .  A
C1023      C1024   1.410       .  A
C1023      C1028   1.400       .  A
C1023      H1030   1.084       .  S
C1024      C1025   1.409       .  A
C1025      C1026   1.403       .  A
C1025      N1032   1.434       .  S
C1026      C1027   1.413       .  A
C1026      H1031   1.083       .  S
C1027      C1028   1.410       .  A
C1028      N1029   1.433       .  S
N1029      O1033   1.262       .  A
N1029      O1034   1.262       .  A
N1032      O1036   1.263       .  A
N1032      O1035   1.262       .  A
C1037      C1042   1.401       .  A
C1037      C2382   1.415       .  A
C1037      H1044   1.084       .  S
C1038      C1039   1.410       .  A
C1038      C2381   1.415   1_545  A
C1039      C1040   1.405       .  A
C1039      N1046   1.433       .  S
C1040      C2385   1.411   1_545  A
C1040      H1045   1.084       .  S
C1041      C1042   1.407       .  A
C1041      C2384   1.411       .  A
C1042      N1043   1.436       .  S
N1043      O1047   1.263       .  A
N1043      O1048   1.263       .  A
N1046      O1050   1.262       .  A
N1046      O1049   1.262       .  A
C1051      C1052   1.397       .  A
C1051      C1056   1.401       .  A
C1051      H1058   1.085       .  S
C1052      C1053   1.420       .  A
C1053      C1054   1.401       .  A
C1053      N1060   1.439       .  S
C1054      C1055   1.396       .  A
C1054      H1059   1.085       .  S
C1055      C1056   1.419       .  A
C1056      N1057   1.436       .  S
N1057      O2405   1.262       .  A
N1057      O1062   1.263       .  A
N1060      O1064   1.263       .  A
N1060      O1063   1.263       .  A
O1061      N2401   1.262   1_545  A
C1065      C1066   1.406       .  A
C1065      C1070   1.401       .  A
C1065      H1072   1.085       .  S
C1066      C1067   1.401       .  A
C1067      C1068   1.400       .  A
C1067      N1074   1.429       .  S
C1068      C1069   1.412       .  A
C1068      H1073   1.085       .  S
C1069      C1070   1.408       .  A
C1070      N1071   1.430       .  S
N1071      O1075   1.262       .  A
N1071      O1076   1.262       .  A
N1074      O1078   1.261       .  A
N1074      O1077   1.262       .  A
C1079      C1080   1.415       .  A
C1079      C1084   1.400       .  A
C1079      H1086   1.084       .  S
C1080      C1081   1.410       .  A
C1081      C1082   1.402       .  A
C1081      N1088   1.433       .  S
C1082      C1083   1.410       .  A
C1082      H1087   1.085       .  S
C1083      C1084   1.405       .  A
C1084      N1085   1.436       .  S
N1085      O1089   1.262       .  A
N1085      O1090   1.263       .  A
N1088      O1092   1.262       .  A
N1088      O1091   1.262       .  A
C1093      C1094   1.413       .  A
C1093      C1098   1.401       .  A
C1093      H1100   1.084       .  S
C1094      C1095   1.407       .  A
C1095      C1096   1.400       .  A
C1095      N1102   1.433       .  S
C1096      C1097   1.413       .  A
C1096      H1101   1.084       .  S
C1097      C1098   1.408       .  A
C1098      N1099   1.433       .  S
N1099      O1103   1.262       .  A
N1099      O1104   1.262       .  A
N1102      O1106   1.262       .  A
N1102      O1105   1.262       .  A
C1107      C1108   1.410       .  A
C1107      C1112   1.400       .  A
C1107      H1114   1.085       .  S
C1108      C1109   1.407       .  A
C1109      C1110   1.402       .  A
C1109      N1116   1.432       .  S
C1110      C1111   1.413       .  A
C1110      H1115   1.084       .  S
C1111      C1112   1.410       .  A
C1112      N1113   1.433       .  S
N1113      O1117   1.262   1_545  A
N1113      O1118   1.262   1_545  A
N1116      O1120   1.262       .  A
N1116      O1119   1.262       .  A
C1121      C1122   1.399       .  A
C1121      C1126   1.402       .  A
C1121      H1128   1.084       .  S
C1122      C1123   1.422       .  A
C1123      C1124   1.401       .  A
C1123      N1130   1.434       .  S
C1124      C1125   1.397       .  A
C1124      H1129   1.085       .  S
C1125      C1126   1.420       .  A
C1126      N1127   1.438       .  S
N1127      O1131   1.263       .  A
N1127      O1132   1.263       .  A
N1130      O1134   1.262       .  A
N1130      O1133   1.263       .  A
C1135      C1136   1.396       .  A
C1135      C1140   1.402       .  A
C1135      H1142   1.085       .  S
C1136      C2481   1.419   1_545  A
C1137      C1138   1.403       .  A
C1137      C2480   1.419       .  A
C1137      N1144   1.434       .  S
C1138      C1139   1.400       .  A
C1138      H1143   1.085       .  S
C1139      C2484   1.426       .  A
C1140      C2483   1.426       .  A
C1140      N1141   1.432       .  S
N1141      O1145   1.262       .  A
N1141      O1146   1.262       .  A
N1144      O1148   1.262       .  A
N1144      O1147   1.262       .  A
C1149      C1150   1.400       .  A
C1149      C1154   1.403       .  A
C1149      H1156   1.085       .  S
C1150      C1151   1.426       .  A
C1151      C1152   1.405       .  A
C1151      N1158   1.435       .  S
C1152      C1153   1.397       .  A
C1152      H1157   1.085       .  S
C1153      C1154   1.420       .  A
C1154      N1155   1.430       .  S
N1155      O1159   1.262       .  A
N1155      O1160   1.262       .  A
N1158      O1162   1.263       .  A
N1158      O1161   1.263       .  A
C1163      C1164   1.413       .  A
C1163      C1168   1.397       .  A
C1163      H1170   1.084       .  S
C1164      C1165   1.411       .  A
C1165      C1166   1.402       .  A
C1165      N1172   1.433       .  S
C1166      C1167   1.410       .  A
C1166      H1171   1.084       .  S
C1167      C1168   1.404       .  A
C1168      N1169   1.429   1_545  S
N1169      O1173   1.262       .  A
N1169      O1174   1.262       .  A
N1172      O1176   1.262       .  A
N1172      O1175   1.262       .  A
C1177      C1178   1.399       .  A
C1177      C1182   1.398       .  A
C1177      H1184   1.085       .  S
C1178      C1179   1.426       .  A
C1179      C1180   1.399       .  A
C1179      N1186   1.431       .  S
C1180      C1181   1.395       .  A
C1180      H1185   1.085       .  S
C1181      C1182   1.416       .  A
C1182      N1183   1.429       .  S
N1183      O1187   1.261       .  A
N1183      O1188   1.262       .  A
N1186      O1190   1.262   1_655  A
N1186      O1189   1.262       .  A
C1191      C1192   1.414       .  A
C1191      C1196   1.402       .  A
C1191      H1198   1.084       .  S
C1192      C1193   1.409       .  A
C1193      C1194   1.404       .  A
C1193      N1200   1.432       .  S
C1194      C1195   1.414       .  A
C1194      H1199   1.084       .  S
C1195      C1196   1.408       .  A
C1196      N1197   1.432       .  S
N1197      O1201   1.262       .  A
N1197      O1202   1.262       .  A
N1200      O1204   1.262       .  A
N1200      O1203   1.262       .  A
C1205      C1206   1.414       .  A
C1205      C1210   1.398       .  A
C1205      H1212   1.084       .  S
C1206      C1207   1.410       .  A
C1207      C1208   1.402       .  A
C1207      N1214   1.431   1_655  S
C1208      C1209   1.409       .  A
C1208      H1213   1.085   1_655  S
C1209      C1210   1.403       .  A
C1210      N1211   1.429       .  S
N1211      O1215   1.262       .  A
N1211      O1216   1.262       .  A
N1214      O1218   1.262   1_455  A
N1214      O1217   1.262       .  A
C1219      C1220   1.395       .  A
C1219      C1224   1.401       .  A
C1219      H1226   1.085       .  S
C1220      C1221   1.419       .  A
C1221      C1222   1.406       .  A
C1221      N1228   1.437       .  S
C1222      C1223   1.398       .  A
C1222      H1227   1.085       .  S
C1223      C1224   1.421       .  A
C1224      N1225   1.436       .  S
N1225      O1229   1.262       .  A
N1225      O1230   1.262       .  A
N1228      O1232   1.263       .  A
N1228      O1231   1.262       .  A
C1233      C1234   1.412       .  A
C1233      C1238   1.399       .  A
C1233      H1240   1.084       .  S
C1234      C1235   1.409   1_655  A
C1235      C1236   1.398       .  A
C1235      N1242   1.435       .  S
C1236      C1237   1.411   1_455  A
C1236      H1241   1.084       .  S
C1237      C1238   1.406       .  A
C1238      N1239   1.434       .  S
N1239      O1243   1.263       .  A
N1239      O1244   1.262       .  A
N1242      O1246   1.263       .  A
N1242      O1245   1.262       .  A
C1247      C1248   1.399       .  A
C1247      C1252   1.403       .  A
C1247      H1254   1.085       .  S
C1248      C1249   1.423       .  A
C1249      C1250   1.397       .  A
C1249      N1256   1.430       .  S
C1250      C1251   1.396       .  A
C1250      H1255   1.085       .  S
C1251      C1252   1.423       .  A
C1252      N1253   1.435       .  S
N1253      O1257   1.262       .  A
N1253      O1258   1.263       .  A
N1256      O1260   1.262       .  A
N1256      O1259   1.262       .  A
C1261      C1262   1.414       .  A
C1261      C1266   1.401       .  A
C1261      H1268   1.083       .  S
C1262      C1263   1.406       .  A
C1263      C1264   1.400       .  A
C1263      N1270   1.429       .  S
C1264      C1265   1.411       .  A
C1264      H1269   1.084       .  S
C1265      C1266   1.403       .  A
C1266      N1267   1.428       .  S
N1267      O1271   1.262       .  A
N1267      O1272   1.262       .  A
N1270      O1274   1.262       .  A
N1270      O1273   1.262       .  A
C1275      C1276   1.413   1_545  A
C1275      C1280   1.401       .  A
C1275      H1282   1.084       .  S
C1276      C1277   1.408       .  A
C1277      C1278   1.403       .  A
C1277      N2628   1.429       .  S
C1278      C1279   1.413   1_565  A
C1278      H1283   1.084       .  S
C1279      C1280   1.408       .  A
C1280      N1281   1.432       .  S
N1281      O1285   1.262       .  A
N1281      O1286   1.262       .  A
N1284      C2621   1.429       .  S
N1284      O1288   1.262       .  A
N1284      O1287   1.262       .  A
C1289      C1290   1.397       .  A
C1289      C1294   1.398       .  A
C1289      H1296   1.084       .  S
C1290      C1291   1.421   1_545  A
C1291      C1292   1.400       .  A
C1291      N2642   1.430       .  S
C1292      C1293   1.398   1_565  A
C1292      H2641   1.084       .  S
C1293      C1294   1.422       .  A
C1294      N1295   1.431       .  S
N1295      O1299   1.262       .  A
N1295      O1300   1.262       .  A
H1297      C2636   1.084       .  S
N1298      C2635   1.430       .  S
N1298      O1302   1.262       .  A
N1298      O1301   1.262       .  A
C1303      C1304   1.413   1_565  A
C1303      C1308   1.402       .  A
C1303      H2654   1.084       .  S
C1304      C1305   1.409       .  A
C1305      C1306   1.402       .  A
C1305      N1312   1.433       .  S
C1306      C1307   1.413       .  A
C1306      H1311   1.084       .  S
C1307      C1308   1.408   1_545  A
C1308      N2653   1.430       .  S
N1309      C2652   1.431       .  S
N1309      O1313   1.261       .  A
N1309      O1314   1.262       .  A
H1310      C2647   1.084       .  S
N1312      O1316   1.262       .  A
N1312      O1315   1.262       .  A
C1317      C1318   1.409       .  A
C1317      C1322   1.404       .  A
C1317      H1324   1.085       .  S
C1318      C1319   1.411       .  A
C1319      C1320   1.407       .  A
C1319      N1326   1.438       .  S
C1320      C1321   1.413       .  A
C1320      H1325   1.084       .  S
C1321      C1322   1.412       .  A
C1322      N1323   1.434       .  S
N1323      O1327   1.263       .  A
N1323      O1328   1.262       .  A
N1326      O1330   1.263       .  A
N1326      O1329   1.263       .  A
C1331      C1336   1.400       .  A
C1331      C2676   1.412   1_545  A
C1331      H1338   1.084       .  S
C1332      C1333   1.404       .  A
C1332      C2675   1.412       .  A
C1333      C1334   1.395       .  A
C1333      N1340   1.430       .  S
C1334      C1335   1.412       .  A
C1334      H1339   1.085       .  S
C1335      C2680   1.405       .  A
C1336      C2679   1.405   1_545  A
C1336      N1337   1.431       .  S
N1337      O1341   1.262       .  A
N1337      O1342   1.262       .  A
N1340      O1344   1.262       .  A
N1340      O1343   1.262       .  A
O1345      V1353   1.924       .  S
O1346      V1353   1.923       .  S
O1346      C1356   1.272       .  A
O1347      V1353   1.870       .  S
O1348      V1353   1.869       .  S
O1348      C1358   1.255       .  A
O1349      V1354   1.921       .  S
O1350      V1354   1.915       .  S
O1350      C1357   1.271       .  A
O1351      C1356   1.257       .  A
O1352      V1354   1.881       .  S
O1352      C1355   1.258       .  A
C1355      C2662   1.485       .  S
C1356      C2648   1.490       .  S
C1357      C2676   1.478       .  S
C1358      C2637   1.483       .  S
O1359      V1367   1.928       .  S
O1360      V1367   1.929       .  S
O1360      C1370   1.274       .  A
O1361      V1367   1.865       .  S
O1361      C1371   1.253       .  A
O1362      V1367   1.860       .  S
O1362      C1372   1.254       .  A
O1364      V1368   1.927       .  S
O1364      C1371   1.274       .  A
O1365      V1368   1.866       .  S
O1365      C1370   1.255       .  A
O1366      C1369   1.257       .  A
V1367      V1368   2.083       .  T
C1369      C2620   1.491       .  S
C1370      C2609   1.481       .  S
C1371      C2592   1.486       .  S
C1372      C2679   1.478       .  S
O1373      V1381   1.924       .  S
O1373      C1383   1.272       .  A
O1374      V1381   1.916       .  S
O1374      C1384   1.270       .  A
O1375      V1381   1.876   1_455  S
O1375      C1385   1.256       .  A
O1376      V1381   1.882       .  S
O1376      C1386   1.259       .  A
O1377      V1382   1.923       .  S
O1377      C1386   1.272       .  A
O1378      V1382   1.923   1_455  S
O1378      C1385   1.271       .  A
O1379      V1382   1.867       .  S
O1379      C1384   1.256       .  A
O1380      V1382   1.869       .  S
O1380      C1383   1.256       .  A
V1381      V1382   2.083       .  T
C1383      C2550   1.487       .  S
C1384      C2578   1.479       .  S
C1385      C2564   1.475       .  S
C1386      C2665   1.493       .  S
O1387      V1395   1.928   1_455  S
O1387      C1397   1.273       .  A
O1388      V1395   1.926       .  S
O1388      C1398   1.273       .  A
O1389      V1395   1.864       .  S
O1389      C1399   1.253       .  A
O1390      V1395   1.860       .  S
O1390      C1400   1.254       .  A
O1391      V1396   1.922       .  S
O1391      C1400   1.272       .  A
O1392      V1396   1.925       .  S
O1392      C1399   1.274       .  A
O1393      V1396   1.870       .  S
O1393      C1398   1.256       .  A
O1394      V1396   1.872   1_455  S
O1394      C1397   1.257       .  A
V1395      V1396   2.082       .  T
C1397      C2536   1.493       .  S
C1398      C2606   1.487       .  S
C1399      C2522   1.486       .  S
C1400      C2581   1.477       .  S
O1401      V1409   1.929       .  S
O1401      C1411   1.274       .  A
O1402      V1409   1.926       .  S
O1402      C1412   1.273       .  A
O1403      V1409   1.870       .  S
O1403      C1413   1.257       .  A
O1404      V1409   1.876       .  S
O1404      C1414   1.257       .  A
O1405      V1410   1.926       .  S
O1405      C1414   1.273       .  A
O1406      V1410   1.922       .  S
O1406      C1413   1.271       .  A
O1407      V1410   1.873       .  S
O1407      C1412   1.257       .  A
O1408      V1410   1.877       .  S
O1408      C1411   1.256       .  A
V1409      V1410   2.083       .  T
C1411      C2497   1.487       .  S
C1412      C2651   1.490       .  S
C1413      C2508   1.484       .  S
C1414      C2480   1.483       .  S
O1415      V1423   1.922       .  S
O1415      C1425   1.272       .  A
O1416      V1423   1.923       .  S
O1416      C1426   1.272       .  A
O1417      V1423   1.876       .  S
O1417      C1427   1.258       .  A
O1418      V1423   1.872       .  S
O1418      C1428   1.257       .  A
O1419      V1424   1.918       .  S
O1419      C1428   1.271       .  A
O1420      V1424   1.918       .  S
O1420      C1427   1.271       .  A
O1421      V1424   1.870       .  S
O1421      C1426   1.256       .  A
O1422      V1424   1.878       .  S
O1422      C1425   1.257       .  A
V1423      V1424   2.083       .  T
C1425      C2623   1.489       .  S
C1426      C2469   1.477       .  S
C1427      C2455   1.487       .  S
C1428      C2511   1.481       .  S
O1429      V1437   1.932       .  S
O1429      C1439   1.275       .  A
O1430      V1437   1.932       .  S
O1430      C1440   1.274       .  A
O1431      V1437   1.866       .  S
O1431      C1441   1.255       .  A
O1432      V1437   1.864       .  S
O1432      C1442   1.255       .  A
O1433      V1438   1.925       .  S
O1433      C1442   1.273       .  A
O1434      V1438   1.923       .  S
O1434      C1441   1.273       .  A
O1435      V1438   1.865       .  S
O1435      C1440   1.254       .  A
O1436      V1438   1.874       .  S
O1436      C1439   1.255       .  A
V1437      V1438   2.082       .  T
C1439      C2494   1.492       .  S
C1440      C2567   1.481       .  S
C1441      C2438   1.483       .  S
C1442      C2424   1.488       .  S
O1443      V1451   1.926       .  S
O1443      C1453   1.274       .  A
O1444      V1451   1.923       .  S
O1444      C1454   1.273       .  A
O1445      V1451   1.867       .  S
O1445      C1455   1.253       .  A
O1446      V1451   1.865       .  S
O1446      C1456   1.255       .  A
O1447      V1452   1.924       .  S
O1447      C1456   1.273       .  A
O1448      V1452   1.925       .  S
O1448      C1455   1.272       .  A
O1449      V1452   1.871       .  S
O1449      C1454   1.255       .  A
O1450      V1452   1.874       .  S
O1450      C1453   1.257       .  A
V1451      V1452   2.084       .  T
C1453      C2539   1.492       .  S
C1454      C2466   1.483       .  S
C1455      C2410   1.467       .  S
C1456      C2441   1.484       .  S
O1457      V1465   1.921       .  S
O1457      C1467   1.272       .  A
O1458      V1465   1.922       .  S
O1458      C1468   1.272       .  A
O1459      V1465   1.866       .  S
O1459      C1469   1.255       .  A
O1460      V1465   1.861       .  S
O1460      C1470   1.253       .  A
O1461      V1466   1.924       .  S
O1461      C1470   1.272       .  A
O1462      V1466   1.926       .  S
O1462      C1469   1.273       .  A
O1463      V1466   1.870       .  S
O1463      C1468   1.256       .  A
O1464      V1466   1.877   1_545  S
O1464      C1467   1.257   1_545  A
V1465      V1466   2.084       .  T
C1467      C2385   1.484       .  S
C1468      C2368   1.483       .  S
C1469      C2357   1.486       .  S
C1470      C2396   1.472       .  S
O1471      V1479   1.924       .  S
O1471      C1481   1.273       .  A
O1472      V1479   1.927       .  S
O1472      C1482   1.273       .  A
O1473      V1479   1.863       .  S
O1473      C1483   1.253       .  A
O1474      V1479   1.865       .  S
O1474      C1484   1.255       .  A
O1475      V1480   1.925       .  S
O1475      C1484   1.272       .  A
O1476      V1480   1.923       .  S
O1476      C1483   1.272       .  A
O1477      V1480   1.867       .  S
O1477      C1482   1.256       .  A
O1478      V1480   1.874       .  S
O1478      C1481   1.257       .  A
V1479      V1480   2.084       .  T
C1481      C2340   1.489       .  S
C1482      C2329   1.488       .  S
C1483      C2399   1.471       .  S
C1484      C2312   1.480       .  S
O1485      V1493   1.920       .  S
O1485      C1495   1.271       .  A
O1486      V1493   1.917       .  S
O1486      C1496   1.271       .  A
O1487      V1493   1.878       .  S
O1487      C1497   1.258       .  A
O1488      V1493   1.872       .  S
O1488      C1498   1.256       .  A
O1489      V1494   1.916       .  S
O1489      C1498   1.270       .  A
O1490      V1494   1.920       .  S
O1490      C1497   1.272       .  A
O1491      V1494   1.877       .  S
O1491      C1496   1.258       .  A
O1492      V1494   1.881       .  S
O1492      C1495   1.259       .  A
V1493      V1494   2.083       .  T
C1495      C2284   1.491       .  S
C1496      C2371   1.488       .  S
C1497      C2270   1.488       .  S
C1498      C2298   1.474       .  S
O1499      V1507   1.924       .  S
O1499      C1509   1.272       .  A
O1500      V1507   1.925       .  S
O1500      C1510   1.273       .  A
O1501      V1507   1.871       .  S
O1501      C1511   1.256       .  A
O1502      V1507   1.871       .  S
O1502      C1512   1.256       .  A
O1503      V1508   1.921       .  S
O1503      C1512   1.272       .  A
O1504      V1508   1.919       .  S
O1504      C1511   1.271       .  A
O1505      V1508   1.868       .  S
O1505      C1510   1.255       .  A
O1506      V1508   1.875       .  S
O1506      C1509   1.258       .  A
V1507      V1508   2.084       .  T
C1509      C2343   1.491       .  S
C1510      C2256   1.482       .  S
C1511      C2301   1.475       .  S
C1512      C2242   1.483       .  S
O1513      V1521   1.924       .  S
O1513      C1523   1.273       .  A
O1514      V1521   1.920       .  S
O1514      C1524   1.272       .  A
O1515      V1521   1.865       .  S
O1515      C1525   1.254       .  A
O1516      V1521   1.864       .  S
O1516      C1526   1.255       .  A
O1517      V1522   1.923       .  S
O1517      C1526   1.271       .  A
O1518      V1522   1.919       .  S
O1518      C1525   1.271       .  A
O1519      V1522   1.873       .  S
O1519      C1524   1.256       .  A
O1520      V1522   1.879       .  S
O1520      C1523   1.257       .  A
V1521      V1522   2.085       .  T
C1523      C2217   1.489       .  S
C1524      C2259   1.477       .  S
C1525      C2228   1.469       .  S
C1526      C2200   1.478       .  S
O1527      V1535   1.925       .  S
O1527      C1537   1.273       .  A
O1528      V1535   1.920       .  S
O1528      C1538   1.272       .  A
O1529      V1535   1.863       .  S
O1529      C1539   1.255       .  A
O1530      V1535   1.860       .  S
O1530      C1540   1.253       .  A
O1531      V1536   1.924       .  S
O1531      C1540   1.272       .  A
O1532      V1536   1.926       .  S
O1532      C1539   1.273       .  A
O1533      V1536   1.870       .  S
O1533      C1538   1.255       .  A
O1534      V1536   1.877       .  S
O1534      C1537   1.258       .  A
V1535      V1536   2.084       .  T
C1537      C2287   1.493       .  S
C1538      C2186   1.475       .  S
C1539      C2172   1.487       .  S
C1540      C2231   1.471       .  S
O1541      V1549   1.924       .  S
O1541      C1551   1.272       .  A
O1542      V1549   1.921   1_455  S
O1542      C1552   1.272       .  A
O1543      V1549   1.871       .  S
O1543      C1553   1.257       .  A
O1544      V1549   1.875       .  S
O1544      C1554   1.256       .  A
O1545      V1550   1.921       .  S
O1545      C1554   1.273       .  A
O1546      V1550   1.918       .  S
O1546      C1553   1.271       .  A
O1547      V1550   1.874   1_455  S
O1547      C1552   1.256       .  A
O1548      V1550   1.878       .  S
O1548      C1551   1.258       .  A
V1549      V1550   2.084       .  T
C1551      C2214   1.483       .  S
C1552      C2326   1.480       .  S
C1553      C2158   1.483       .  S
C1554      C2144   1.489       .  S
O1555      V1563   1.931   1_455  S
O1555      C1565   1.274       .  A
O1556      V1563   1.929       .  S
O1556      C1566   1.274       .  A
O1557      V1563   1.868       .  S
O1557      C1567   1.254       .  A
O1558      V1563   1.868       .  S
O1558      C1568   1.256       .  A
O1559      V1564   1.920       .  S
O1559      C1568   1.271       .  A
O1560      V1564   1.923       .  S
O1560      C1567   1.273       .  A
O1561      V1564   1.861       .  S
O1561      C1566   1.253       .  A
O1562      V1564   1.866   1_455  S
O1562      C1565   1.255       .  A
V1563      V1564   2.082       .  T
C1565      C2382   1.492       .  S
C1566      C2189   1.483       .  S
C1567      C2133   1.484       .  S
C1568      C2161   1.485       .  S
O1569      V1577   1.925       .  S
O1569      C1579   1.273       .  A
O1570      V1577   1.927       .  S
O1570      C1580   1.273       .  A
O1571      V1577   1.872       .  S
O1571      C1581   1.256       .  A
O1572      V1577   1.875       .  S
O1572      C1582   1.257       .  A
O1573      V1578   1.916       .  S
O1573      C1582   1.271       .  A
O1574      V1578   1.914       .  S
O1574      C1581   1.270       .  A
O1575      V1578   1.866       .  S
O1575      C1580   1.256       .  A
O1576      V1578   1.873       .  S
O1576      C1579   1.257       .  A
V1577      V1578   2.085       .  T
C1579      C2105   1.487       .  S
C1580      C2088   1.482       .  S
C1581      C2116   1.471       .  S
C1582      C2203   1.484       .  S
O1583      V1591   1.919       .  S
O1583      C1593   1.273       .  A
O1584      V1591   1.922       .  S
O1584      C1594   1.271       .  A
O1585      V1591   1.873       .  S
O1585      C1595   1.256       .  A
O1586      V1591   1.866       .  S
O1586      C1596   1.255       .  A
O1587      V1592   1.920       .  S
O1587      C1596   1.270       .  A
O1588      V1592   1.919       .  S
O1588      C1595   1.272       .  A
O1589      V1592   1.870       .  S
O1589      C1594   1.257       .  A
O1590      V1592   1.877       .  S
O1590      C1593   1.256       .  A
V1591      V1592   2.084       .  T
C1593      C2077   1.488       .  S
C1594      C2060   1.486       .  S
C1595      C2595   1.481       .  S
C1596      C2119   1.470       .  S
O1597      V1605   1.917   1_455  S
O1597      C1607   1.271       .  A
O1598      V1605   1.916       .  S
O1598      C1608   1.270       .  A
O1599      V1605   1.870       .  S
O1599      C1609   1.255       .  A
O1600      V1605   1.870       .  S
O1600      C1610   1.257       .  A
O1601      V1606   1.916       .  S
O1601      C1610   1.270       .  A
O1602      V1606   1.921       .  S
O1602      C1609   1.272       .  A
O1603      V1606   1.875       .  S
O1603      C1608   1.258       .  A
O1604      V1606   1.882   1_455  S
O1604      C1607   1.258       .  A
V1605      V1606   2.083       .  T
C1607      C2032   1.485       .  S
C1608      C2063   1.483       .  S
C1609      C2525   1.475       .  S
C1610      C2046   1.484       .  S
O1611      V1619   1.923       .  S
O1611      C1621   1.272       .  A
O1612      V1619   1.925   1_455  S
O1612      C1622   1.272       .  A
O1613      V1619   1.865       .  S
O1613      C1623   1.255       .  A
O1614      V1619   1.870       .  S
O1614      C1624   1.255       .  A
O1615      V1620   1.925       .  S
O1615      C1624   1.272       .  A
O1616      V1620   1.921       .  S
O1616      C1623   1.272       .  A
O1617      V1620   1.867   1_455  S
O1617      C1622   1.256       .  A
O1618      V1620   1.875       .  S
O1618      C1621   1.257       .  A
V1619      V1620   2.083       .  T
C1621      C2102   1.492       .  S
C1622      C2018   1.488       .  S
C1623      C2049   1.484       .  S
C1624      C2147   1.477       .  S
O1625      V1633   1.926       .  S
O1625      C1635   1.273       .  A
O1626      V1633   1.926       .  S
O1626      C1636   1.273       .  A
O1627      V1633   1.870       .  S
O1627      C1637   1.255       .  A
O1628      V1633   1.861       .  S
O1628      C1638   1.255       .  A
O1629      V1634   1.927       .  S
O1629      C1638   1.273       .  A
O1630      V1634   1.925       .  S
O1630      C1637   1.273       .  A
O1631      V1634   1.864       .  S
O1631      C1636   1.254       .  A
O1632      V1634   1.870       .  S
O1632      C1635   1.257       .  A
V1633      V1634   2.083       .  T
C1635      C2035   1.489       .  S
C1636      C1990   1.486       .  S
C1637      C2413   1.481       .  S
C1638      C2004   1.486       .  S
O1639      V1647   1.922       .  S
O1639      C1649   1.272       .  A
O1641      V1647   1.877       .  S
O1641      C1651   1.257       .  A
O1642      V1647   1.878       .  S
O1642      C1652   1.258       .  A
O1643      V1648   1.914       .  S
O1643      C1652   1.270       .  A
O1644      V1648   1.913       .  S
O1644      C1651   1.270       .  A
O1645      V1648   1.874       .  S
O1645      C1650   1.257       .  A
O1646      V1648   1.877       .  S
O1646      C1649   1.258       .  A
V1647      V1648   2.082       .  T
C1649      C1976   1.488       .  S
C1651      C2007   1.485       .  S
C1652      C2315   1.486       .  S
O1653      V1661   1.919       .  S
O1653      C1663   1.271       .  A
O1654      V1661   1.917       .  S
O1654      C1664   1.271       .  A
O1655      V1661   1.859       .  S
O1655      C1665   1.253       .  A
O1656      V1661   1.868       .  S
O1656      C1666   1.256       .  A
O1657      V1662   1.924       .  S
O1657      C1666   1.272       .  A
O1658      V1662   1.924       .  S
O1658      C1665   1.271       .  A
O1659      V1662   1.877       .  S
O1659      C1664   1.257       .  A
O1660      V1662   1.880       .  S
O1660      C1663   1.259       .  A
V1661      V1662   2.083       .  T
C1663      C1979   1.490       .  S
C1664      C2091   1.487       .  S
C1665      C1962   1.468       .  S
C1666      C2245   1.488       .  S
O1667      V1675   1.928       .  S
O1667      C1677   1.273       .  A
O1668      V1675   1.925       .  S
O1668      C1678   1.273       .  A
O1669      V1675   1.869       .  S
O1669      C1679   1.256       .  A
O1670      V1675   1.868       .  S
O1670      C1680   1.254       .  A
O1671      V1676   1.919       .  S
O1671      C1680   1.271       .  A
O1672      V1676   1.922       .  S
O1672      C1679   1.271       .  A
O1673      V1676   1.864       .  S
O1673      C1678   1.255       .  A
O1674      V1676   1.868       .  S
O1674      C1677   1.255       .  A
V1675      V1676   2.084       .  T
C1677      C2074   1.484       .  S
C1678      C1993   1.486       .  S
C1679      C2452   1.482       .  S
C1680      C1965   1.469       .  S
O1681      V1689   1.927       .  S
O1681      C1691   1.273       .  A
O1682      V1689   1.926       .  S
O1682      C1692   1.274       .  A
O1683      V1689   1.870       .  S
O1683      C1693   1.256       .  A
O1684      V1689   1.873       .  S
O1684      C1694   1.255       .  A
O1685      V1690   1.915       .  S
O1685      C1694   1.270       .  A
O1686      V1690   1.921       .  S
O1686      C1693   1.272       .  A
O1687      V1690   1.867       .  S
O1687      C1692   1.253       .  A
O1688      V1690   1.872       .  S
O1688      C1691   1.257       .  A
V1689      V1690   2.084       .  T
C1691      C1934   1.485       .  S
C1692      C1923   1.483       .  S
C1693      C2354   1.478       .  S
C1694      C1948   1.471       .  S
O1695      V1703   1.920       .  S
O1695      C1705   1.272       .  A
O1696      V1703   1.920       .  S
O1696      C1706   1.273       .  A
O1697      V1703   1.861       .  S
O1697      C1707   1.254       .  A
O1698      V1703   1.866       .  S
O1698      C1708   1.254       .  A
O1699      V1704   1.923       .  S
O1699      C1708   1.273       .  A
O1700      V1704   1.924       .  S
O1700      C1707   1.271       .  A
O1701      V1704   1.868       .  S
O1701      C1706   1.254       .  A
O1702      V1704   1.875       .  S
O1702      C1705   1.257       .  A
V1703      V1704   2.084       .  T
C1705      C1906   1.483       .  S
C1706      C1892   1.484       .  S
C1707      C1951   1.469       .  S
C1708      C2427   1.476       .  S
O1709      V1717   1.918       .  S
O1709      C1719   1.271       .  A
O1710      V1717   1.920       .  S
O1710      C1720   1.271       .  A
O1711      V1717   1.875       .  S
O1711      C1721   1.257       .  A
O1712      V1717   1.871       .  S
O1712      C1722   1.256       .  A
O1713      V1718   1.914       .  S
O1713      C1722   1.270       .  A
O1714      V1718   1.916       .  S
O1714      C1721   1.271       .  A
O1715      V1718   1.871       .  S
O1715      C1720   1.256       .  A
O1716      V1718   1.879       .  S
O1716      C1719   1.257       .  A
V1717      V1718   2.086       .  T
C1719      C1864   1.478       .  S
C1720      C1853   1.477       .  S
C1721      C2175   1.481       .  S
C1722      C1878   1.471       .  S
O1723      V1731   1.921       .  S
O1723      C1733   1.273       .  A
O1724      V1731   1.919       .  S
O1724      C1734   1.271       .  A
O1725      V1731   1.871       .  S
O1725      C1735   1.256       .  A
O1726      V1731   1.875       .  S
O1726      C1736   1.256       .  A
O1727      V1732   1.924       .  S
O1727      C1736   1.273       .  A
O1728      V1732   1.922       .  S
O1728      C1735   1.271       .  A
O1729      V1732   1.865       .  S
O1729      C1734   1.255       .  A
O1730      V1732   1.870       .  S
O1730      C1733   1.254       .  A
V1731      V1732   2.084       .  T
C1733      C2634   1.481       .  S
C1734      C1881   1.470       .  S
C1735      C1825   1.482       .  S
C1736      C1836   1.490       .  S
O1737      V1745   1.929       .  S
O1737      C1747   1.274       .  A
O1738      V1745   1.928       .  S
O1738      C1748   1.274       .  A
O1739      V1745   1.870       .  S
O1739      C1749   1.256       .  A
O1740      V1745   1.869       .  S
O1740      C1750   1.254       .  A
O1741      V1746   1.927   1_545  S
O1741      C1750   1.273   1_545  A
O1742      V1746   1.931       .  S
O1742      C1749   1.274       .  A
O1743      V1746   1.864       .  S
O1743      C1748   1.253       .  A
O1744      V1746   1.867   1_545  S
O1744      C1747   1.255   1_545  A
V1745      V1746   2.083       .  T
C1747      C1867   1.486       .  S
C1748      C1920   1.487       .  S
C1749      C2273   1.489       .  S
C1750      C1808   1.480       .  S
O1751      V1759   1.924       .  S
O1751      C1761   1.272   1_545  A
O1752      V1759   1.924       .  S
O1752      C1762   1.273       .  A
O1753      V1759   1.871       .  S
O1753      C1763   1.255   1_545  A
O1754      V1759   1.872       .  S
O1754      C1764   1.254       .  A
O1755      V1760   1.929       .  S
O1755      C1764   1.275   1_565  A
O1756      V1760   1.926       .  S
O1756      C1763   1.273       .  A
O1757      V1760   1.870       .  S
O1757      C1762   1.256   1_565  A
O1758      V1760   1.872       .  S
O1758      C1761   1.257       .  A
V1759      V1760   2.082   1_545  T
C1761      C1909   1.488       .  S
C1762      C1822   1.488       .  S
C1763      C1811   1.481       .  S
C1764      C2483   1.493       .  S
O1765      V1773   1.917   1_455  S
O1765      C1775   1.271       .  A
O1766      V1773   1.915       .  S
O1766      C1776   1.271       .  A
O1767      V1773   1.866       .  S
O1767      C1777   1.254       .  A
O1768      V1773   1.863       .  S
O1768      C1778   1.255       .  A
O1769      V1774   1.924       .  S
O1769      C1778   1.272       .  A
O1770      V1774   1.926       .  S
O1770      C1777   1.272       .  A
O1771      V1774   1.874       .  S
O1771      C1776   1.256       .  A
O1772      V1774   1.880   1_455  S
O1772      C1775   1.258       .  A
V1773      V1774   2.084       .  T
C1775      C1937   1.487       .  S
C1776      C1850   1.483       .  S
C1777      C2130   1.472       .  S
C1778      C1794   1.482       .  S
O1779      V1787   1.923       .  S
O1779      C1789   1.273       .  A
O1780      V1787   1.921   1_455  S
O1780      C1790   1.272       .  A
O1781      V1787   1.874       .  S
O1781      C1791   1.257       .  A
O1782      V1787   1.876       .  S
O1782      C1792   1.257       .  A
O1783      V1788   1.918       .  S
O1783      C1792   1.270       .  A
O1784      V1788   1.915       .  S
O1784      C1791   1.270       .  A
O1785      V1788   1.869   1_455  S
O1785      C1790   1.255       .  A
O1786      V1788   1.876       .  S
O1786      C1789   1.257       .  A
V1787      V1788   2.084       .  T
C1789      C1839   1.486       .  S
C1790      C1895   1.478       .  S
C1791      C1797   1.484       .  S
C1792      C2553   1.478       .  S
C1793      C1794   1.410   1_455  A
C1793      C1798   1.398   1_455  A
C1793      H1800   1.084       .  S
C1794      C1795   1.407       .  A
C1795      C1796   1.402       .  A
C1795      N1802   1.432       .  S
C1796      C1797   1.413   1_556  A
C1796      H1801   1.084   1_556  S
C1797      C1798   1.410   1_554  A
C1798      N1799   1.434   1_656  S
N1799      O1803   1.262   1_455  A
N1799      O1804   1.262       .  A
N1802      O1806   1.262       .  A
N1802      O1805   1.262       .  A
C1807      C1808   1.398   1_545  A
C1807      C1812   1.400       .  A
C1807      H1814   1.085       .  S
C1808      C1809   1.422       .  A
C1809      C1810   1.403   1_556  A
C1809      N1816   1.436       .  S
C1810      C1811   1.398       .  A
C1810      H1815   1.085       .  S
C1811      C1812   1.418   1_564  A
C1812      N1813   1.429   1_556  S
N1813      O1817   1.262       .  A
N1813      O1818   1.262       .  A
N1816      O1820   1.263       .  A
N1816      O1819   1.263       .  A
C1821      C1822   1.414   1_565  A
C1821      C1826   1.401       .  A
C1821      H1828   1.083       .  S
C1823      C1824   1.403       .  A
C1823      N1830   1.434       .  S
C1824      C1825   1.411       .  A
C1824      H1829   1.084       .  S
C1826      N1827   1.433       .  S
N1827      O1831   1.262       .  A
N1827      O1832   1.262       .  A
N1830      O1834   1.262       .  A
N1830      O1833   1.262       .  A
C1835      C1836   1.400       .  A
C1835      C1840   1.404       .  A
C1835      H1842   1.084       .  S
C1836      C1837   1.422       .  A
C1837      C1838   1.401       .  A
C1837      N1844   1.431       .  S
C1838      C1839   1.398       .  A
C1838      H1843   1.085       .  S
C1839      C1840   1.423       .  A
C1840      N1841   1.436       .  S
N1841      O1845   1.263       .  A
N1841      O1846   1.263       .  A
N1844      O1848   1.262       .  A
N1844      O1847   1.262       .  A
C1849      C1850   1.399       .  A
C1849      C1854   1.399       .  A
C1849      H1856   1.084       .  S
C1850      C1851   1.422       .  A
C1851      C1852   1.400       .  A
C1851      N1858   1.432       .  S
C1852      C1853   1.397       .  A
C1852      H1857   1.085       .  S
C1853      C1854   1.419       .  A
C1854      N1855   1.435       .  S
N1855      O1859   1.262       .  A
N1855      O1860   1.262       .  A
N1858      O1862   1.262       .  A
N1858      O1861   1.262       .  A
C1863      C1864   1.395       .  A
C1863      C1868   1.398       .  A
C1863      H1870   1.085       .  S
C1865      C1866   1.407       .  A
C1865      N1872   1.438       .  S
C1866      C1867   1.401       .  A
C1866      H1871   1.084       .  S
C1868      N1869   1.433       .  S
N1869      O1873   1.262       .  A
N1872      O1876   1.263       .  A
N1872      O1875   1.263       .  A
C1877      C1878   1.397       .  A
C1877      C1882   1.398   1_556  A
C1877      H1884   1.086       .  S
C1878      C1879   1.418       .  A
C1879      C1880   1.402   1_556  A
C1879      N1886   1.438       .  S
C1880      C1881   1.398       .  A
C1880      H1885   1.086       .  S
C1881      C1882   1.418       .  A
C1882      N1883   1.438       .  S
N1883      O1887   1.263       .  A
N1883      O1888   1.263       .  A
N1886      O1890   1.263       .  A
N1886      O1889   1.263       .  A
C1891      C1892   1.399       .  A
C1891      C1896   1.399       .  A
C1891      H1898   1.084       .  S
C1892      C1893   1.424       .  A
C1893      C1894   1.399       .  A
C1893      N1900   1.432       .  S
C1894      C1895   1.396       .  A
C1894      H1899   1.085       .  S
C1895      C1896   1.418       .  A
C1896      N1897   1.432       .  S
N1897      O1901   1.262       .  A
N1897      O1902   1.262       .  A
N1900      O1904   1.262       .  A
N1900      O1903   1.262       .  A
C1905      C1906   1.411       .  A
C1905      C1910   1.401       .  A
C1905      H1912   1.084       .  S
C1906      C1907   1.409       .  A
C1907      C1908   1.402       .  A
C1907      N1914   1.436       .  S
C1908      C1909   1.413       .  A
C1908      H1913   1.084       .  S
C1909      C1910   1.409       .  A
C1910      N1911   1.431   1_565  S
N1911      O1915   1.262       .  A
N1911      O1916   1.262       .  A
N1914      O1918   1.263       .  A
N1914      O1917   1.262       .  A
C1919      C1920   1.398       .  A
C1919      C1924   1.401       .  A
C1919      H1926   1.084       .  S
C1920      C1921   1.424       .  A
C1921      C1922   1.398       .  A
C1921      N1928   1.431   1_565  S
C1922      C1923   1.396       .  A
C1922      H1927   1.085       .  S
C1923      C1924   1.424       .  A
C1924      N1925   1.432       .  S
N1925      O1929   1.262       .  A
N1925      O1930   1.262       .  A
N1928      O1932   1.262       .  A
N1928      O1931   1.262       .  A
C1933      C1934   1.410       .  A
C1933      C1938   1.399       .  A
C1933      H1940   1.084       .  S
C1934      C1935   1.406       .  A
C1935      C1936   1.403       .  A
C1935      N1942   1.428       .  S
C1936      C1937   1.412       .  A
C1936      H1941   1.084       .  S
C1937      C1938   1.408       .  A
C1938      N1939   1.430       .  S
N1939      O1943   1.262       .  A
N1939      O1944   1.262       .  A
N1942      O1946   1.262       .  A
N1942      O1945   1.262       .  A
C1947      C1948   1.409       .  A
C1947      C1952   1.402   1_556  A
C1947      H1954   1.085       .  S
C1948      C1949   1.407       .  A
C1949      C1950   1.396   1_556  A
C1949      N1956   1.432       .  S
C1950      C1951   1.405       .  A
C1950      H1955   1.085       .  S
C1951      C1952   1.405       .  A
C1952      N1953   1.429       .  S
N1953      O1957   1.262       .  A
N1953      O1958   1.262       .  A
N1956      O1960   1.262       .  A
N1956      O1959   1.262       .  A
C1961      C1962   1.397       .  A
C1961      C1966   1.403       .  A
C1961      H1968   1.085       .  S
C1962      C1963   1.417       .  A
C1963      C1964   1.399       .  A
C1963      N1970   1.439       .  S
C1964      C1965   1.397       .  A
C1964      H1969   1.085       .  S
C1965      C1966   1.420       .  A
C1966      N1967   1.439       .  S
N1967      O1971   1.263       .  A
N1967      O1972   1.263       .  A
N1970      O1974   1.263       .  A
N1970      O1973   1.263       .  A
C1975      C1976   1.411       .  A
C1975      C1980   1.401       .  A
C1975      H1982   1.084       .  S
C1976      C1977   1.410       .  A
C1977      C1978   1.404       .  A
C1977      N1984   1.433       .  S
C1978      C1979   1.412       .  A
C1978      H1983   1.084       .  S
C1979      C1980   1.408       .  A
C1980      N1981   1.429       .  S
N1981      O1985   1.262       .  A
N1981      O1986   1.262       .  A
N1984      O1988   1.262       .  A
N1984      O1987   1.262       .  A
C1989      C1990   1.415       .  A
C1989      C1994   1.400       .  A
C1989      H1996   1.083       .  S
C1990      C1991   1.407       .  A
C1991      C1992   1.400       .  A
C1991      N1998   1.434       .  S
C1992      C1993   1.414       .  A
C1992      H1997   1.083       .  S
C1993      C1994   1.406       .  A
C1994      N1995   1.432       .  S
N1995      O1999   1.262       .  A
N1995      O2000   1.262       .  A
N1998      O2002   1.262       .  A
N1998      O2001   1.262       .  A
C2003      C2004   1.412       .  A
C2003      C2008   1.397       .  A
C2003      H2010   1.084       .  S
C2004      C2005   1.407       .  A
C2005      C2006   1.403       .  A
C2005      N2012   1.431       .  S
C2006      C2007   1.413       .  A
C2006      H2011   1.084       .  S
C2007      C2008   1.408       .  A
C2008      N2009   1.433       .  S
N2009      O2013   1.262       .  A
N2009      O2014   1.262       .  A
N2012      O2016   1.262       .  A
N2012      O2015   1.262       .  A
C2017      C2018   1.413       .  A
C2017      C2022   1.398       .  A
C2017      H2024   1.084       .  S
C2018      C2019   1.410   1_565  A
C2019      N2026   1.434       .  S
C2020      H2025   1.084       .  S
C2021      C2022   1.407       .  A
C2022      N2023   1.433       .  S
N2023      O2027   1.263       .  A
N2023      O2028   1.262       .  A
N2026      O2030   1.262       .  A
C2031      C2036   1.404       .  A
C2031      H2038   1.084       .  S
C2033      C2034   1.398       .  A
C2034      C2035   1.412       .  A
C2034      H2039   1.084       .  S
C2035      C2036   1.409       .  A
C2036      N2037   1.428       .  S
N2037      O2041   1.262       .  A
N2037      O2042   1.262       .  A
N2040      O2044   1.262       .  A
N2040      O2043   1.262       .  A
C2045      C2046   1.413       .  A
C2045      C2050   1.399       .  A
C2045      H2052   1.083       .  S
C2046      C2047   1.409       .  A
C2047      C2048   1.399       .  A
C2048      C2049   1.412       .  A
C2048      H2053   1.084       .  S
C2049      C2050   1.407       .  A
C2050      N2051   1.432       .  S
N2051      O2055   1.262       .  A
N2051      O2056   1.262   1_655  A
N2054      O2058   1.263       .  A
N2054      O2057   1.262       .  A
C2059      C2060   1.412       .  A
C2059      C2064   1.400       .  A
C2059      H2066   1.083       .  S
C2060      C2061   1.408       .  A
C2061      C2062   1.400       .  A
C2061      N2068   1.430       .  S
C2062      C2063   1.411       .  A
C2062      H2067   1.084       .  S
C2063      C2064   1.410       .  A
C2064      N2065   1.435       .  S
N2065      O2069   1.262       .  A
N2065      O2070   1.262       .  A
N2068      O2072   1.262       .  A
N2068      O2071   1.262       .  A
C2073      C2074   1.398       .  A
C2073      C2078   1.403       .  A
C2073      H2080   1.085       .  S
C2074      C2075   1.422       .  A
C2075      C2076   1.400       .  A
C2075      N2082   1.436       .  S
C2076      C2077   1.399       .  A
C2076      H2081   1.085       .  S
C2077      C2078   1.422       .  A
C2078      N2079   1.430       .  S
N2079      O2083   1.262       .  A
N2079      O2084   1.262       .  A
N2082      O2086   1.263       .  A
N2082      O2085   1.263       .  A
C2087      C2088   1.410       .  A
C2087      C2092   1.398       .  A
C2087      H2094   1.084       .  S
C2088      C2089   1.405       .  A
C2089      C2090   1.402       .  A
C2089      N2096   1.429       .  S
C2090      C2091   1.414       .  A
C2090      H2095   1.084       .  S
C2091      C2092   1.408       .  A
C2092      N2093   1.430       .  S
N2093      O2097   1.262       .  A
N2093      O2098   1.262       .  A
N2096      O2100   1.262       .  A
N2096      O2099   1.262       .  A
C2101      C2102   1.414       .  A
C2101      C2106   1.403       .  A
C2101      H2108   1.084       .  S
C2102      C2103   1.411       .  A
C2103      C2104   1.402       .  A
C2103      N2110   1.433       .  S
C2104      C2105   1.411       .  A
C2104      H2109   1.084       .  S
C2105      C2106   1.408       .  A
C2106      N2107   1.433       .  S
N2107      O2111   1.262       .  A
N2107      O2112   1.262       .  A
N2110      O2114   1.262       .  A
N2110      O2113   1.262       .  A
C2115      C2116   1.397       .  A
C2115      C2120   1.399       .  A
C2115      H2122   1.085       .  S
C2116      C2117   1.419       .  A
C2117      C2118   1.403       .  A
C2117      N2124   1.439       .  S
C2118      C2119   1.399       .  A
C2118      H2123   1.085       .  S
C2119      C2120   1.417       .  A
C2120      N2121   1.439       .  S
N2121      O2125   1.263       .  A
N2121      O2126   1.263       .  A
N2124      O2128   1.263       .  A
N2124      O2127   1.263       .  A
C2129      C2130   1.395       .  A
C2129      C2134   1.403   1_655  A
C2129      H2136   1.084   1_655  S
C2130      C2131   1.417       .  A
C2131      C2132   1.401       .  A
C2131      N2138   1.437       .  S
C2132      C2133   1.399       .  A
C2132      H2137   1.084       .  S
C2133      C2134   1.425   1_655  A
C2134      N2135   1.435       .  S
N2135      O2139   1.263       .  A
N2135      O2140   1.263       .  A
N2138      O2142   1.263       .  A
N2138      O2141   1.262       .  A
C2143      C2144   1.400       .  A
C2143      H2150   1.084       .  S
C2145      C2146   1.401       .  A
C2145      N2152   1.429       .  S
C2146      C2147   1.396       .  A
C2146      H2151   1.085       .  S
C2147      C2148   1.419   1_565  A
N2149      O2153   1.263       .  A
N2152      O2156   1.262       .  A
N2152      O2155   1.262       .  A
C2157      C2158   1.412       .  A
C2157      C2162   1.400       .  A
C2157      H2164   1.083       .  S
C2158      C2159   1.406       .  A
C2159      C2160   1.398       .  A
C2159      N2166   1.429       .  S
C2160      C2161   1.413       .  A
C2160      H2165   1.083       .  S
C2161      C2162   1.409       .  A
C2162      N2163   1.432       .  S
N2163      O2168   1.262       .  A
N2166      O2170   1.262   1_655  A
N2166      O2169   1.262       .  A
C2171      C2172   1.413       .  A
C2171      C2176   1.398       .  A
C2171      H2178   1.084       .  S
C2172      C2173   1.408       .  A
C2173      C2174   1.403       .  A
C2173      N2180   1.432       .  S
C2174      C2175   1.412       .  A
C2174      H2179   1.085       .  S
C2175      C2176   1.407       .  A
C2176      N2177   1.435       .  S
N2177      O2181   1.263       .  A
N2177      O2182   1.262       .  A
N2180      O2184   1.262       .  A
N2180      O2183   1.262       .  A
C2185      C2186   1.394       .  A
C2185      C2190   1.398       .  A
C2185      H2192   1.085       .  S
C2186      C2187   1.421       .  A
C2187      C2188   1.404       .  A
C2187      N2194   1.438       .  S
C2188      C2189   1.399       .  A
C2188      H2193   1.084       .  S
C2189      C2190   1.424       .  A
C2190      N2191   1.436       .  S
N2191      O2195   1.263       .  A
N2191      O2196   1.263       .  A
N2194      O2198   1.263       .  A
N2194      O2197   1.263       .  A
C2199      C2200   1.409       .  A
C2199      C2204   1.395       .  A
C2199      H2206   1.085       .  S
C2200      C2201   1.407       .  A
C2201      C2202   1.404       .  A
C2201      N2208   1.433       .  S
C2202      C2203   1.413       .  A
C2202      H2207   1.084       .  S
C2203      C2204   1.406       .  A
C2204      N2205   1.429       .  S
N2205      O2209   1.262       .  A
N2205      O2210   1.262       .  A
N2208      O2212   1.262       .  A
N2208      O2211   1.262       .  A
C2213      C2214   1.398       .  A
C2213      C2218   1.405       .  A
C2213      H2220   1.085       .  S
C2214      C2215   1.420       .  A
C2215      C2216   1.404       .  A
C2215      N2222   1.437       .  S
C2216      C2217   1.400       .  A
C2216      H2221   1.085       .  S
C2217      C2218   1.423       .  A
C2218      N2219   1.435       .  S
N2219      O2223   1.263       .  A
N2219      O2224   1.263       .  A
N2222      O2226   1.262       .  A
N2222      O2225   1.263       .  A
C2227      C2228   1.394       .  A
C2227      C2232   1.398       .  A
C2227      H2234   1.084       .  S
C2228      C2229   1.420       .  A
C2229      C2230   1.401       .  A
C2229      N2236   1.437       .  S
C2230      C2231   1.395       .  A
C2230      H2235   1.084       .  S
C2231      C2232   1.421       .  A
C2232      N2233   1.437       .  S
N2233      O2237   1.263       .  A
N2233      O2238   1.262       .  A
N2236      O2240   1.262       .  A
N2236      O2239   1.262       .  A
C2241      C2242   1.412       .  A
C2241      C2246   1.401       .  A
C2241      H2248   1.085       .  S
C2242      C2243   1.407       .  A
C2243      C2244   1.401       .  A
C2243      N2250   1.434       .  S
C2244      C2245   1.414       .  A
C2244      H2249   1.084       .  S
C2245      C2246   1.408       .  A
C2246      N2247   1.432       .  S
N2247      O2251   1.262       .  A
N2247      O2252   1.262       .  A
N2250      O2254   1.263       .  A
N2250      O2253   1.262       .  A
C2255      C2256   1.399       .  A
C2255      C2260   1.404       .  A
C2255      H2262   1.085       .  S
C2256      C2257   1.423       .  A
C2257      C2258   1.400       .  A
C2257      N2264   1.436       .  S
C2258      C2259   1.396       .  A
C2258      H2263   1.085       .  S
C2259      C2260   1.420       .  A
C2260      N2261   1.437       .  S
N2261      O2265   1.263       .  A
N2261      O2266   1.263       .  A
N2264      O2268   1.263       .  A
N2264      O2267   1.263       .  A
C2269      C2270   1.413       .  A
C2269      C2274   1.404       .  A
C2269      H2276   1.084       .  S
C2270      C2271   1.407       .  A
C2271      C2272   1.400       .  A
C2271      N2278   1.430       .  S
C2272      C2273   1.412       .  A
C2272      H2277   1.084       .  S
C2273      C2274   1.407       .  A
C2274      N2275   1.428   1_565  S
N2275      O2279   1.261       .  A
N2275      O2280   1.262       .  A
N2278      O2282   1.262       .  A
N2278      O2281   1.262       .  A
C2283      C2284   1.412       .  A
C2283      C2288   1.403       .  A
C2283      H2290   1.084       .  S
C2284      C2285   1.409       .  A
C2285      C2286   1.403       .  A
C2285      N2292   1.431       .  S
C2286      C2287   1.413       .  A
C2286      H2291   1.084       .  S
C2287      C2288   1.409       .  A
C2288      N2289   1.430       .  S
N2289      O2293   1.262       .  A
N2289      O2294   1.262       .  A
N2292      O2296   1.262       .  A
N2292      O2295   1.262       .  A
C2297      C2298   1.398       .  A
C2297      C2302   1.400       .  A
C2297      H2304   1.085       .  S
C2298      C2299   1.419       .  A
C2299      C2300   1.402       .  A
C2299      N2306   1.438       .  S
C2300      C2301   1.398       .  A
C2300      H2305   1.085       .  S
C2301      C2302   1.418       .  A
C2302      N2303   1.436       .  S
N2303      O2307   1.263       .  A
N2303      O2308   1.262       .  A
N2306      O2310   1.263       .  A
N2306      O2309   1.263       .  A
C2311      C2316   1.397       .  A
C2311      H2318   1.085       .  S
C2312      C2313   1.409       .  A
C2313      C2314   1.405       .  A
C2313      N2320   1.436       .  S
C2314      H2319   1.084       .  S
C2315      C2316   1.408       .  A
C2316      N2317   1.432       .  S
N2317      O2321   1.262       .  A
N2317      O2322   1.262       .  A
N2320      O2324   1.263       .  A
N2320      O2323   1.262       .  A
C2325      C2326   1.411       .  A
C2325      C2330   1.403       .  A
C2325      H2332   1.084       .  S
C2327      C2328   1.400       .  A
C2327      N2334   1.434       .  S
C2328      C2329   1.414       .  A
C2328      H2333   1.083       .  S
C2330      N2331   1.431       .  S
N2331      O2335   1.262       .  A
N2331      O2336   1.262       .  A
N2334      O2338   1.262       .  A
N2334      O2337   1.263       .  A
C2339      C2340   1.412       .  A
C2339      C2344   1.402       .  A
C2339      H2346   1.084       .  S
C2340      C2341   1.409       .  A
C2341      C2342   1.404       .  A
C2341      N2348   1.435       .  S
C2342      C2343   1.414       .  A
C2342      H2347   1.084       .  S
C2343      C2344   1.409       .  A
C2344      N2345   1.432       .  S
N2345      O2349   1.262       .  A
N2345      O2350   1.262       .  A
N2348      O2352   1.263       .  A
N2348      O2351   1.262   1_565  A
C2353      C2354   1.411       .  A
C2353      C2358   1.400       .  A
C2353      H2360   1.085       .  S
C2354      C2355   1.406       .  A
C2355      C2356   1.400       .  A
C2355      N2362   1.433       .  S
C2356      C2357   1.414       .  A
C2356      H2361   1.084       .  S
C2357      C2358   1.406       .  A
C2358      N2359   1.429   1_565  S
N2359      O2363   1.262       .  A
N2359      O2364   1.262       .  A
N2362      O2366   1.262       .  A
N2362      O2365   1.263       .  A
C2367      C2368   1.410       .  A
C2367      C2372   1.400       .  A
C2367      H2374   1.084       .  S
C2368      C2369   1.409       .  A
C2369      C2370   1.403       .  A
C2369      N2376   1.434       .  S
C2370      C2371   1.413       .  A
C2370      H2375   1.083       .  S
C2371      C2372   1.410       .  A
C2372      N2373   1.433       .  S
N2373      O2377   1.262       .  A
N2373      O2378   1.262   1_565  A
N2376      O2380   1.263       .  A
N2376      O2379   1.262       .  A
C2381      C2386   1.401       .  A
C2381      H2388   1.084       .  S
C2382      C2383   1.410       .  A
C2383      C2384   1.405       .  A
C2383      N2390   1.433       .  S
C2384      H2389   1.084       .  S
C2385      C2386   1.407       .  A
C2386      N2387   1.436       .  S
N2387      O2391   1.263       .  A
N2387      O2392   1.263       .  A
N2390      O2394   1.262       .  A
N2390      O2393   1.262       .  A
C2395      C2396   1.397       .  A
C2395      C2400   1.401       .  A
C2395      H2402   1.085       .  S
C2396      C2397   1.420       .  A
C2397      C2398   1.401       .  A
C2397      N2404   1.439       .  S
C2398      C2399   1.396       .  A
C2398      H2403   1.085       .  S
C2399      C2400   1.419       .  A
C2400      N2401   1.436       .  S
N2401      O2406   1.263       .  A
N2404      O2408   1.263       .  A
N2404      O2407   1.263       .  A
C2409      C2410   1.406       .  A
C2409      C2414   1.401       .  A
C2409      H2416   1.085       .  S
C2410      C2411   1.402       .  A
C2411      C2412   1.400       .  A
C2411      N2418   1.429       .  S
C2412      C2413   1.412       .  A
C2412      H2417   1.085       .  S
C2413      C2414   1.408       .  A
C2414      N2415   1.430       .  S
N2415      O2419   1.262       .  A
N2415      O2420   1.262       .  A
N2418      O2422   1.261       .  A
N2418      O2421   1.262       .  A
C2423      C2424   1.415       .  A
C2423      C2428   1.399       .  A
C2423      H2430   1.084       .  S
C2424      C2425   1.410       .  A
C2425      C2426   1.402       .  A
C2425      N2432   1.433       .  S
C2426      C2427   1.410       .  A
C2426      H2431   1.085       .  S
C2427      C2428   1.405       .  A
C2428      N2429   1.436       .  S
N2429      O2433   1.262       .  A
N2429      O2434   1.263       .  A
N2432      O2436   1.262       .  A
N2432      O2435   1.262       .  A
C2437      C2438   1.413       .  A
C2437      C2442   1.401       .  A
C2437      H2444   1.084       .  S
C2438      C2439   1.407       .  A
C2439      C2440   1.400       .  A
C2439      N2446   1.433       .  S
C2440      C2441   1.413       .  A
C2440      H2445   1.084       .  S
C2441      C2442   1.408       .  A
C2442      N2443   1.433       .  S
N2443      O2447   1.262       .  A
N2443      O2448   1.262       .  A
N2446      O2450   1.262       .  A
N2446      O2449   1.262       .  A
C2451      C2452   1.410       .  A
C2451      C2456   1.400       .  A
C2451      H2458   1.085       .  S
C2452      C2453   1.407       .  A
C2453      C2454   1.402       .  A
C2453      N2460   1.432       .  S
C2454      C2455   1.413       .  A
C2454      H2459   1.084       .  S
C2455      C2456   1.410       .  A
C2456      N2457   1.433       .  S
N2457      O2461   1.262       .  A
N2457      O2462   1.262       .  A
N2460      O2464   1.262       .  A
N2460      O2463   1.262       .  A
C2465      C2466   1.399       .  A
C2465      C2470   1.402       .  A
C2465      H2472   1.084       .  S
C2466      C2467   1.422       .  A
C2467      C2468   1.401       .  A
C2467      N2474   1.434       .  S
C2468      C2469   1.397       .  A
C2468      H2473   1.085       .  S
C2469      C2470   1.420       .  A
C2470      N2471   1.438       .  S
N2471      O2475   1.263       .  A
N2471      O2476   1.263       .  A
N2474      O2478   1.262       .  A
N2474      O2477   1.263       .  A
C2479      C2480   1.396       .  A
C2479      C2484   1.402       .  A
C2479      H2486   1.085       .  S
C2481      C2482   1.404       .  A
C2481      N2488   1.434       .  S
C2482      C2483   1.400   1_565  A
C2482      H2487   1.085       .  S
C2484      N2485   1.432       .  S
N2485      O2489   1.262       .  A
N2485      O2490   1.262       .  A
N2488      O2492   1.262       .  A
N2488      O2491   1.262       .  A
C2493      C2494   1.400       .  A
C2493      C2498   1.403       .  A
C2493      H2500   1.085       .  S
C2494      C2495   1.426       .  A
C2495      C2496   1.405       .  A
C2495      N2502   1.435       .  S
C2496      C2497   1.397       .  A
C2496      H2501   1.085       .  S
C2497      C2498   1.420       .  A
C2498      N2499   1.430       .  S
N2499      O2503   1.262       .  A
N2499      O2504   1.262       .  A
N2502      O2506   1.263       .  A
N2502      O2505   1.263       .  A
C2507      C2508   1.413       .  A
C2507      C2512   1.397       .  A
C2507      H2514   1.084       .  S
C2508      C2509   1.411       .  A
C2509      C2510   1.402       .  A
C2509      N2516   1.433       .  S
C2510      C2511   1.410       .  A
C2510      H2515   1.084       .  S
C2511      C2512   1.404       .  A
C2512      N2513   1.429       .  S
N2513      O2517   1.262       .  A
N2513      O2518   1.262       .  A
N2516      O2520   1.262       .  A
N2516      O2519   1.262       .  A
C2521      C2522   1.399       .  A
C2521      C2526   1.398       .  A
C2521      H2528   1.085       .  S
C2522      C2523   1.426       .  A
C2523      C2524   1.399       .  A
C2523      N2530   1.431       .  S
C2524      C2525   1.395       .  A
C2524      H2529   1.085       .  S
C2525      C2526   1.416       .  A
C2526      N2527   1.429       .  S
N2527      O2531   1.261       .  A
N2527      O2532   1.262       .  A
N2530      O2534   1.262   1_655  A
N2530      O2533   1.262   1_565  A
C2535      C2536   1.414       .  A
C2535      C2540   1.402       .  A
C2535      H2542   1.084       .  S
C2536      C2537   1.409       .  A
C2537      C2538   1.404       .  A
C2537      N2544   1.432       .  S
C2538      C2539   1.414       .  A
C2538      H2543   1.084       .  S
C2539      C2540   1.408       .  A
C2540      N2541   1.432       .  S
N2541      O2545   1.262       .  A
N2541      O2546   1.262       .  A
N2544      O2548   1.262       .  A
N2544      O2547   1.262       .  A
C2549      C2550   1.414       .  A
C2549      C2554   1.398       .  A
C2549      H2556   1.084       .  S
C2550      C2551   1.410       .  A
C2551      C2552   1.402       .  A
C2551      N2558   1.431   1_655  S
C2552      C2553   1.409       .  A
C2552      H2557   1.085   1_655  S
C2553      C2554   1.402       .  A
C2554      N2555   1.429       .  S
N2555      O2559   1.262       .  A
N2555      O2560   1.262       .  A
N2558      O2562   1.262   1_455  A
N2558      O2561   1.262       .  A
C2563      C2564   1.395       .  A
C2563      C2568   1.401       .  A
C2563      H2570   1.085       .  S
C2564      C2565   1.418       .  A
C2565      C2566   1.405       .  A
C2565      N2572   1.435       .  S
C2566      C2567   1.399       .  A
C2566      H2571   1.085       .  S
C2567      C2568   1.421       .  A
C2568      N2569   1.435       .  S
N2569      O2573   1.262       .  A
N2569      O2574   1.262       .  A
N2572      O2576   1.262       .  A
N2572      O2575   1.262       .  A
C2577      C2578   1.412       .  A
C2577      C2582   1.399       .  A
C2577      H2584   1.084       .  S
C2578      C2579   1.409   1_655  A
C2579      C2580   1.398       .  A
C2579      N2586   1.435       .  S
C2580      C2581   1.411   1_455  A
C2580      H2585   1.084       .  S
C2581      C2582   1.406       .  A
C2582      N2583   1.434       .  S
N2583      O2587   1.263       .  A
N2583      O2588   1.262       .  A
N2586      O2590   1.263       .  A
N2586      O2589   1.262       .  A
C2591      C2592   1.399       .  A
C2591      C2596   1.403       .  A
C2591      H2598   1.085       .  S
C2592      C2593   1.423       .  A
C2593      C2594   1.397       .  A
C2593      N2600   1.430       .  S
C2594      C2595   1.396       .  A
C2594      H2599   1.085       .  S
C2595      C2596   1.423       .  A
C2596      N2597   1.435       .  S
N2597      O2601   1.262       .  A
N2597      O2602   1.263       .  A
N2600      O2604   1.262       .  A
N2600      O2603   1.262       .  A
C2605      C2606   1.415       .  A
C2605      C2610   1.401       .  A
C2605      H2612   1.083       .  S
C2606      C2607   1.406       .  A
C2607      C2608   1.400       .  A
C2607      N2614   1.429       .  S
C2608      C2609   1.411       .  A
C2608      H2613   1.084       .  S
C2609      C2610   1.403       .  A
C2610      N2611   1.428       .  S
N2611      O2615   1.262       .  A
N2611      O2616   1.262       .  A
N2614      O2618   1.262   1_565  A
N2614      O2617   1.262       .  A
C2619      C2620   1.413       .  A
C2619      C2624   1.401       .  A
C2619      H2626   1.084       .  S
C2620      C2621   1.408       .  A
C2621      C2622   1.403       .  A
C2622      C2623   1.413       .  A
C2622      H2627   1.084       .  S
C2623      C2624   1.408       .  A
C2624      N2625   1.432       .  S
N2625      O2629   1.262       .  A
N2625      O2630   1.262       .  A
N2628      O2632   1.262       .  A
N2628      O2631   1.262       .  A
C2633      C2634   1.397       .  A
C2633      C2638   1.398       .  A
C2633      H2640   1.084       .  S
C2634      C2635   1.420       .  A
C2635      C2636   1.400       .  A
C2636      C2637   1.398       .  A
C2637      C2638   1.422       .  A
C2638      N2639   1.431       .  S
N2639      O2643   1.262       .  A
N2639      O2644   1.262       .  A
N2642      O2646   1.262       .  A
N2642      O2645   1.262       .  A
C2647      C2648   1.413       .  A
C2647      C2652   1.402       .  A
C2648      C2649   1.409       .  A
C2649      C2650   1.402       .  A
C2649      N2656   1.433       .  S
C2650      C2651   1.413       .  A
C2650      H2655   1.084       .  S
C2651      C2652   1.409       .  A
N2653      O2657   1.261       .  A
N2653      O2658   1.262       .  A
N2656      O2660   1.262       .  A
N2656      O2659   1.262       .  A
C2661      C2662   1.409       .  A
C2661      C2666   1.404       .  A
C2661      H2668   1.085       .  S
C2662      C2663   1.411       .  A
C2663      C2664   1.407       .  A
C2663      N2670   1.438   1_565  S
C2664      C2665   1.413       .  A
C2664      H2669   1.084       .  S
C2665      C2666   1.412       .  A
C2666      N2667   1.434       .  S
N2667      O2671   1.263       .  A
N2667      O2672   1.262       .  A
N2670      O2674   1.263       .  A
N2670      O2673   1.263       .  A
C2675      C2680   1.400       .  A
C2675      H2682   1.084       .  S
C2676      C2677   1.404       .  A
C2677      C2678   1.395       .  A
C2677      N2684   1.431       .  S
C2678      C2679   1.412       .  A
C2678      H2683   1.085       .  S
C2680      N2681   1.431       .  S
N2681      O2685   1.262       .  A
N2681      O2686   1.262       .  A
N2684      O2688   1.262       .  A
N2684      O2687   1.262       .  A
