geometry optimzed in LAMMPS
_audit_creation_date              2020-12-01 
_audit_creation_method            'lammps2cif' 
_symmetry_space_group_name_H-M    'P1' 
_symmetry_Int_Tables_number       1 
_symmetry_cell_setting            triclinic 
loop_ 
_symmetry_equiv_pos_as_xyz 
  x,y,z 
_cell_length_a                    31.00851169 
_cell_length_b                    27.42651431197062 
_cell_length_c                    66.46018943106928 
_cell_angle_alpha                 89.46907501346264 
_cell_angle_beta                  90.10472207340631 
_cell_angle_gamma                 89.81715796729496 
loop_ 
_atom_site_label 
_atom_site_type_symbol 
_atom_site_fract_x 
_atom_site_fract_y 
_atom_site_fract_z 
_atom_site_charge 
O1          O  0.87606588  0.17744005  0.47446318    -0.82900
C2          C  0.03212854  0.15480993  0.43202000     0.96400
O3          O  0.99739148  0.13203165  0.42836239    -0.72100
O4          O  0.97624960  0.09456025  0.46357112    -0.75600
Al5        Al  0.94449145  0.12944837  0.44444324     1.49000
C6          C  0.96628720  0.09280471  0.48190698     0.91700
O7          O  0.98736987  0.21140789  0.49259953    -0.81900
O8          O  0.93408832  0.27565842  0.44606462    -0.75400
Al9        Al  0.93330074  0.19350391  0.48173978     1.90100
O10         O  0.00698995  0.26078563  0.46823573    -0.74500
O11         O  0.95817694  0.21742460  0.41746296    -0.74300
O12         O  0.03064394  0.19437593  0.44146771    -0.80000
O13         O  0.91101228  0.16001361  0.42441743    -0.78200
O14         O  0.95297588  0.18546092  0.45700298    -1.14300
O15         O  0.89140677  0.11162746  0.45830917    -0.73500
C16         C  0.86665433  0.13443708  0.47009132     0.97200
C17         C  0.00909167  0.24719101  0.48649517     0.93600
Al18       Al  0.98058347  0.23305498  0.44428255     1.55600
O19         O  0.94632193  0.12751654  0.49033675    -0.78200
C20         C  0.92464644  0.19320179  0.41288119     0.97700
C21         C  0.91552353  0.28720439  0.46209473     0.92600
O22         O  0.91664941  0.26014475  0.47760598    -0.83500
O23         O  0.85269557  0.16728260  0.27351021    -0.82900
C24         C  0.71034934  0.17247672  0.32635448     0.96400
O25         O  0.74258110  0.14438736  0.32836253    -0.72100
O26         O  0.74967097  0.10119359  0.29355407    -0.75600
Al27       Al  0.79002708  0.13295650  0.31003090     1.49000
C28         C  0.75376960  0.09625089  0.27487900     0.91700
O29         O  0.74041063  0.21757567  0.26349551    -0.81900
O30         O  0.81807608  0.27528122  0.30371309    -0.75400
Al31       Al  0.79615092  0.19243344  0.27042950     1.90100
O32         O  0.73816197  0.27206401  0.28690945    -0.74500
O33         O  0.79454583  0.22442920  0.33518740    -0.74300
O34         O  0.71443155  0.21175599  0.31651246    -0.80000
O35         O  0.83102717  0.15855507  0.32794641    -0.78200
O36         O  0.78482654  0.18898645  0.29659696    -1.14300
O37         O  0.83771436  0.10827099  0.29446190    -0.73500
C38         C  0.86165055  0.12593769  0.28086495     0.97200
C39         C  0.72635360  0.25780710  0.26967859     0.93600
Al40       Al  0.76745884  0.24150776  0.30960152     1.55600
O41         O  0.77409817  0.12796671  0.26459892    -0.78200
C42         C  0.82452277  0.19427869  0.33929268     0.97700
C43         C  0.83126955  0.28490208  0.28623224     0.92600
O44         O  0.82121487  0.25803224  0.27143507    -0.83500
O45         O  0.58196267  0.74969602  0.02497060    -0.82900
C46         C  0.46199196  0.84412901  0.07265788     0.96400
O47         O  0.46760703  0.80346075  0.06435873    -0.72100
O48         O  0.49425926  0.73849034  0.03809413    -0.75600
Al49       Al  0.52137009  0.77181377  0.06028342     1.49000
C50         C  0.48710863  0.75075449  0.02003829     0.91700
O51         O  0.53595709  0.87599174  0.01197605    -0.81900
O52         O  0.59372745  0.90259789  0.04363092    -0.75400
Al53       Al  0.55785980  0.81437503  0.02083696     1.90100
O54         O  0.50830823  0.90985508  0.03878354    -0.74500
O55         O  0.58316688  0.85583458  0.07784293    -0.74300
O56         O  0.49422588  0.87168868  0.07495732    -0.80000
O57         O  0.54480858  0.79171706  0.08596195    -0.78200
O58         O  0.54143785  0.82201229  0.04620421    -1.14300
O59         O  0.57289698  0.73606500  0.05711291    -0.73500
C60         C  0.58763881  0.72283986  0.04040035     0.97200
C61         C  0.51546038  0.91049511  0.02006662     0.93600
Al62       Al  0.54472682  0.87985138  0.05799449     1.55600
O63         O  0.50498388  0.78785393  0.01267382    -0.78200
C64         C  0.57546739  0.82075158  0.08960386     0.97700
C65         C  0.61915945  0.88505253  0.03091620     0.92600
O66         O  0.61357598  0.84175870  0.02502000    -0.83500
O67         O  0.67189430  0.75201922  0.22494133    -0.82900
C68         C  0.78912638  0.85994053  0.17980960     0.96400
O69         O  0.78781110  0.81912266  0.18873036    -0.72100
O70         O  0.76433552  0.74983125  0.21511193    -0.75600
Al71       Al  0.73722088  0.78067346  0.19179383     1.49000
C72         C  0.76634636  0.76094833  0.23353458     0.91700
O73         O  0.70645311  0.88209518  0.23920044    -0.81900
O74         O  0.65090249  0.90426293  0.20786786    -0.75400
Al75       Al  0.69122723  0.81759947  0.22997074     1.90100
O76         O  0.73632609  0.91773126  0.21293558    -0.74500
O77         O  0.66814101  0.85789545  0.17325210    -0.74300
O78         O  0.75437574  0.88320246  0.17669818    -0.80000
O79         O  0.71349187  0.79923446  0.16556144    -0.78200
O80         O  0.71037138  0.82767996  0.20521346    -1.14300
O81         O  0.69056480  0.73803657  0.19355305    -0.73500
C82         C  0.67061857  0.72608308  0.20925464     0.97200
C83         C  0.72549065  0.91837380  0.23124242     0.93600
Al84       Al  0.70282463  0.88547590  0.19339644     1.55600
O85         O  0.74477450  0.79605377  0.24014559    -0.78200
C86         C  0.67987441  0.82429255  0.16158841     0.97700
C87         C  0.62652071  0.88243380  0.22021226     0.92600
O88         O  0.63387458  0.83828858  0.22421607    -0.83500
O89         O  0.37410112  0.15866396  0.77898577    -0.82900
C90         C  0.21129804  0.15360177  0.81886498     0.96400
O91         O  0.24383865  0.12719140  0.82226661    -0.72100
O92         O  0.26390111  0.09319914  0.78612213    -0.75600
Al93       Al  0.29622393  0.12054551  0.80682371     1.49000
C94         C  0.27497705  0.09265985  0.76779231     0.91700
O95         O  0.27180435  0.21570598  0.75799491    -0.81900
O96         O  0.31617124  0.26780512  0.80656047    -0.75400
Al97       Al  0.32040734  0.18704467  0.77073585     1.90100
O98         O  0.24481423  0.25757684  0.78285547    -0.74500
O99         O  0.28948505  0.20846171  0.83399301    -0.74300
O100        O  0.21613380  0.19246897  0.80900755    -0.80000
O101        O  0.32975230  0.14406574  0.82795303    -0.78200
O102        O  0.29528083  0.17879546  0.79467648    -1.14300
O103        O  0.34733298  0.09661836  0.79479562    -0.73500
C104        C  0.37697643  0.11452120  0.78434820     0.97200
C105        C  0.24699283  0.24848343  0.76423066     0.93600
Al106      Al  0.26864378  0.22728739  0.80706842     1.55600
O107        O  0.29981759  0.12519828  0.76056536    -0.78200
C108        C  0.32041805  0.17990989  0.83886036     0.97700
C109        C  0.33994550  0.27867850  0.79203503     0.92600
O110        O  0.34379140  0.25089229  0.77694284    -0.83500
O111        O  0.38833206  0.16507737  0.97511168    -0.82900
C112        C  0.53848754  0.16566101  0.92637907     0.96400
O113        O  0.50734243  0.13634031  0.92497545    -0.72100
O114        O  0.49379914  0.09725588  0.96103325    -0.75600
Al115      Al  0.45713414  0.12727495  0.94203686     1.49000
C116        C  0.48610329  0.09542027  0.97967523     0.91700
O117        O  0.49762078  0.21818437  0.98773421    -0.81900
O118        O  0.42756112  0.27001859  0.94386295    -0.75400
Al119      Al  0.44427160  0.19182975  0.97952479     1.90100
O120        O  0.50734010  0.26825913  0.96247379    -0.74500
O121        O  0.45506481  0.21660193  0.91447183    -0.74300
O122        O  0.53276746  0.20576819  0.93513829    -0.80000
O123        O  0.41845541  0.15101114  0.92233348    -0.78200
O124        O  0.46032902  0.18487691  0.95403304    -1.14300
O125        O  0.40810268  0.10423289  0.95638558    -0.73500
C126        C  0.38215059  0.12225377  0.96879475     0.97200
C127        C  0.51537602  0.25558908  0.98046305     0.93600
Al128      Al  0.47926354  0.23579713  0.94010687     1.55600
O129        O  0.46571513  0.12965569  0.98800886    -0.78200
C130        C  0.42530259  0.18652330  0.91070609     0.97700
C131        C  0.41371074  0.28339885  0.96064533     0.92600
O132        O  0.42040807  0.25665911  0.97597211    -0.83500
O133        O  0.15954873  0.75260136  0.72787843    -0.82900
C134        C  0.28198844  0.84553519  0.67847245     0.96400
O135        O  0.27870486  0.80643159  0.68828021    -0.72100
O136        O  0.25682403  0.74365137  0.71611461    -0.75600
Al137      Al  0.22739649  0.77228523  0.69342032     1.49000
C138        C  0.25856454  0.75158190  0.73477373     0.91700
O139        O  0.20970213  0.87732992  0.73986132    -0.81900
O140        O  0.15140796  0.90400733  0.70772690    -0.75400
Al141      Al  0.18586588  0.81551106  0.73179950     1.90100
O142        O  0.23693074  0.90960978  0.71213103    -0.74500
O143        O  0.16175239  0.85411230  0.67443988    -0.74300
O144        O  0.24898330  0.87178921  0.67597585    -0.80000
O145        O  0.20058278  0.78917600  0.66758459    -0.78200
O146        O  0.20428661  0.82199530  0.70650004    -1.14300
O147        O  0.18045831  0.73210203  0.69755348    -0.73500
C148        C  0.15895173  0.72354890  0.71317190     0.97200
C149        C  0.23103575  0.91057723  0.73095270     0.93600
Al150      Al  0.20000982  0.87949640  0.69364154     1.55600
O151        O  0.23665376  0.78580280  0.74196802    -0.78200
C152        C  0.16981305  0.81834982  0.66327573     0.97700
C153        C  0.12501449  0.88628641  0.71999301     0.92600
O154        O  0.13109760  0.84364745  0.72652031    -0.83500
O155        O  0.06602249  0.74948959  0.52489953    -0.82900
C156        C  0.95804192  0.85431434  0.57498095     0.96400
O157        O  0.95847977  0.81467016  0.56561608    -0.72100
O158        O  0.97761513  0.74865610  0.53848435    -0.75600
Al159      Al  0.00766968  0.77635275  0.56081044     1.49000
C160        C  0.97308841  0.75811040  0.52008481     0.91700
O161        O  0.03025370  0.88203092  0.51359469    -0.81900
O162        O  0.09163170  0.89916892  0.54329416    -0.75400
Al163      Al  0.04696689  0.81609923  0.52152941     1.90100
O164        O  0.00576808  0.91392723  0.54174613    -0.74500
O165        O  0.07952083  0.85096504  0.57801431    -0.74300
O166        O  0.99294956  0.87731123  0.57756591    -0.80000
O167        O  0.03500878  0.79207562  0.58647234    -0.78200
O168        O  0.03229271  0.82395417  0.54705864    -1.14300
O169        O  0.05316195  0.73339038  0.55664433    -0.73500
C170        C  0.06879098  0.72105754  0.53997644     0.97200
C171        C  0.01162361  0.91622926  0.52308077     0.93600
Al172      Al  0.04200129  0.88033085  0.55928198     1.55600
O173        O  0.99143783  0.79551993  0.51301783    -0.78200
C174        C  0.06819538  0.81773246  0.59010589     0.97700
C175        C  0.11498397  0.87696664  0.53076848     0.92600
O176        O  0.10508286  0.83420178  0.52617370    -0.83500
O177        O  0.17361138  0.01764224  0.02492862    -0.82900
C178        C  0.28658675  0.91323885  0.07307360     0.96400
O179        O  0.28454001  0.95359827  0.06381446    -0.72100
O180        O  0.26116921  0.02149630  0.03670379    -0.75600
Al181      Al  0.23325809  0.99039301  0.05992726     1.49000
C182        C  0.26691246  0.00765709  0.01874049     0.91700
O183        O  0.20838323  0.88471103  0.01290562    -0.81900
O184        O  0.15049910  0.86552075  0.04295438    -0.75400
Al185      Al  0.19264803  0.95072825  0.02121172     1.90100
O186        O  0.23757184  0.85317010  0.04011489    -0.74500
O187        O  0.16455373  0.91291307  0.07809686    -0.74300
O188        O  0.25217573  0.88924146  0.07599159    -0.80000
O189        O  0.20930003  0.97174841  0.08611082    -0.78200
O190        O  0.20893305  0.94227413  0.04645866    -1.14300
O191        O  0.18468877  0.03090512  0.05710621    -0.73500
C192        C  0.16880312  0.04385191  0.04046339     0.97200
C193        C  0.22848286  0.85003036  0.02168990     0.93600
Al194      Al  0.20142787  0.88516329  0.05853211     1.55600
O195        O  0.24763463  0.97061143  0.01239156    -0.78200
C196        C  0.17655826  0.94560877  0.09015754     0.97700
C197        C  0.12663943  0.88770064  0.03027011     0.92600
O198        O  0.13474335  0.93157789  0.02615682    -0.83500
O199        O  0.07873267  0.01569523  0.23114469    -0.82900
C200        C  0.96364265  0.92629099  0.17980628     0.96400
O201        O  0.97010035  0.96638934  0.18835682    -0.72100
O202        O  0.99429839  0.02659420  0.21653374    -0.75600
Al203      Al  0.02337900  0.99540604  0.19412495     1.49000
C204        C  0.98440265  0.01210718  0.23407784     0.91700
O205        O  0.03540319  0.88502390  0.24148545    -0.81900
O206        O  0.09516402  0.86426449  0.20984241    -0.75400
Al207      Al  0.05592609  0.94916036  0.23368584     1.90100
O208        O  0.00880592  0.85535952  0.21377818    -0.74500
O209        O  0.08379430  0.91080640  0.17556566    -0.74300
O210        O  0.99451621  0.89618904  0.17846092    -0.80000
O211        O  0.04823283  0.97759853  0.16837215    -0.78200
O212        O  0.04161637  0.94359151  0.20780223    -1.14300
O213        O  0.07511717  0.02917271  0.19884038    -0.73500
C214        C  0.08627914  0.04310546  0.21601542     0.97200
C215        C  0.01534720  0.85154626  0.23242549     0.93600
Al216      Al  0.04540454  0.88666958  0.19534384     1.55600
O217        O  0.00137824  0.97384856  0.24114769    -0.78200
C218        C  0.07708280  0.94666746  0.16405399     0.97700
C219        C  0.12009018  0.88193242  0.22288838     0.92600
O220        O  0.11248212  0.92390646  0.22982504    -0.83500
O221        O  0.88072253  0.59507977  0.27691249    -0.82900
C222        C  0.03712025  0.59797896  0.32210626     0.96400
O223        O  0.00384450  0.62334950  0.32518225    -0.72100
O224        O  0.98826650  0.66233150  0.28898326    -0.75600
Al225      Al  0.95314274  0.63129152  0.30857540     1.49000
C226        C  0.97978233  0.66401792  0.27030958     0.91700
O227        O  0.98854934  0.54264425  0.26085445    -0.81900
O228        O  0.93049252  0.48481420  0.30641209    -0.75400
Al229      Al  0.93659707  0.56820223  0.27104454     1.90100
O230        O  0.00670954  0.49418303  0.28579177    -0.74500
O231        O  0.95633890  0.54108156  0.33561522    -0.74300
O232        O  0.03302664  0.55802733  0.31307296    -0.80000
O233        O  0.91651643  0.60545546  0.32873749    -0.78200
O234        O  0.95632311  0.57419688  0.29610598    -1.14300
O235        O  0.90344079  0.65508471  0.29516043    -0.73500
C236        C  0.87642302  0.63841887  0.28301155     0.97200
C237        C  0.00996016  0.50709821  0.26751409     0.93600
Al238      Al  0.97990067  0.52394830  0.30918261     1.55600
O239        O  0.95737658  0.63084317  0.26233498    -0.78200
C240        C  0.92538650  0.56962707  0.34006148     0.97700
C241        C  0.91215337  0.47397581  0.29016267     0.92600
O242        O  0.91369860  0.50303814  0.27518763    -0.83500
O243        O  0.86565094  0.58297275  0.47523919    -0.82900
C244        C  0.71081762  0.59951501  0.43131616     0.96400
O245        O  0.74421315  0.62517730  0.42834806    -0.72100
O246        O  0.76173429  0.66136592  0.46416915    -0.75600
Al247      Al  0.79617122  0.63014448  0.44498734     1.49000
C248        C  0.77073076  0.66324784  0.48267175     0.91700
O249        O  0.75564326  0.54269683  0.49204293    -0.81900
O250        O  0.81437851  0.48460392  0.44586745    -0.75400
Al251      Al  0.80914065  0.56380942  0.48201324     1.90100
O252        O  0.73983830  0.49316560  0.46745290    -0.74500
O253        O  0.78941952  0.54312140  0.41726071    -0.74300
O254        O  0.71456949  0.55963116  0.44065351    -0.80000
O255        O  0.83215286  0.60385359  0.42485961    -0.78200
O256        O  0.79038740  0.57253631  0.45707559    -1.14300
O257        O  0.84780657  0.64952831  0.45939468    -0.73500
C258        C  0.87390559  0.62640365  0.47060612     0.97200
C259        C  0.73598824  0.50594589  0.48568246     0.93600
Al260      Al  0.76612901  0.52421175  0.44379875     1.55600
O261        O  0.79264898  0.62914082  0.49090113    -0.78200
C262        C  0.82182087  0.56993407  0.41313014     0.97700
C263        C  0.83151046  0.47182820  0.46215846     0.92600
O264        O  0.82851920  0.49755458  0.47785906    -0.83500
O265        O  0.58170527  0.00494678  0.72410613    -0.82900
C266        C  0.45652166  0.90561292  0.68109398     0.96400
O267        O  0.46053325  0.94397935  0.69111133    -0.72100
O268        O  0.48900408  0.00960926  0.71687512    -0.75600
Al269      Al  0.51228475  0.97959138  0.69267734     1.49000
C270        C  0.48865896  0.99683791  0.73526381     0.91700
O271        O  0.54489410  0.87406816  0.73898921    -0.81900
O272        O  0.59487437  0.85156009  0.70645875    -0.75400
Al273      Al  0.56195915  0.93880145  0.72933548     1.90100
O274        O  0.50943794  0.84360664  0.71321458    -0.74500
O275        O  0.57657065  0.90024964  0.67243141    -0.74300
O276        O  0.48973286  0.88028313  0.67737390    -0.80000
O277        O  0.53221115  0.96124861  0.66569088    -0.78200
O278        O  0.53886185  0.93105240  0.70524751    -1.14300
O279        O  0.56023594  0.01981114  0.69308452    -0.73500
C280        C  0.58069583  0.03201493  0.70848772     0.97200
C281        C  0.52029147  0.84172256  0.73152854     0.93600
Al282      Al  0.54251329  0.87368948  0.69318474     1.55600
O283        O  0.51087920  0.96128627  0.74128315    -0.78200
C284        C  0.56440046  0.93464571  0.66099948     0.97700
C285        C  0.62348467  0.87343703  0.71644818     0.92600
O286        O  0.61700810  0.91734033  0.72066249    -0.83500
O287        O  0.64681039  0.99170923  0.52567116    -0.82900
C288        C  0.78290545  0.91256005  0.57444362     0.96400
O289        O  0.76936639  0.95550503  0.57361138    -0.72100
O290        O  0.76741867  0.00308947  0.53891983    -0.75600
Al291      Al  0.72473608  0.98727206  0.55908175     1.49000
C292        C  0.76063487  0.00809493  0.52021681     0.91700
O293        O  0.72613979  0.89002360  0.51078578    -0.81900
O294        O  0.64431848  0.86112650  0.55098824    -0.75400
Al295      Al  0.68783878  0.94065650  0.52004672     1.90100
O296        O  0.72354522  0.84075404  0.53706137    -0.74500
O297        O  0.67796016  0.90090968  0.58282753    -0.74300
O298        O  0.75954399  0.87891036  0.56791576    -0.80000
O299        O  0.68432826  0.98035763  0.58074532    -0.78200
O300        O  0.70466744  0.93462234  0.54592764    -1.14300
O301        O  0.68579530  0.03139223  0.54768983    -0.73500
C302        C  0.65447495  0.02955019  0.53581822     0.97200
C303        C  0.73275508  0.84866377  0.51893376     0.93600
Al304      Al  0.70190234  0.87634825  0.55867771     1.55600
O305        O  0.72906652  0.98735894  0.51222707    -0.78200
C306        C  0.66909740  0.94279333  0.58920980     0.97700
C307        C  0.62780701  0.86597380  0.53379989     0.92600
O308        O  0.64298034  0.89565340  0.52130176    -0.83500
O309        O  0.37807306  0.58308653  0.77972996    -0.82900
C310        C  0.53726549  0.59980320  0.82071361     0.96400
O311        O  0.50340814  0.62429379  0.82429872    -0.72100
O312        O  0.48360202  0.65921651  0.78828881    -0.75600
Al313      Al  0.45055972  0.62864601  0.80820367     1.49000
C314        C  0.47389879  0.66011572  0.76983622     0.91700
O315        O  0.48630711  0.53954024  0.76076387    -0.81900
O316        O  0.43552778  0.48187177  0.80876988    -0.75400
Al317      Al  0.43418428  0.56206955  0.77205252     1.90100
O318        O  0.50760048  0.49285371  0.78578412    -0.74500
O319        O  0.46153018  0.54210325  0.83628876    -0.74300
O320        O  0.53396471  0.56024148  0.81141803    -0.80000
O321        O  0.41622509  0.60176428  0.82901779    -0.78200
O322        O  0.45585432  0.57101108  0.79642512    -1.14300
O323        O  0.39815434  0.64910319  0.79443248    -0.73500
C324        C  0.37058356  0.62682595  0.78396128     0.97200
C325        C  0.50844165  0.50432396  0.76726533     0.93600
Al326      Al  0.48277180  0.52336598  0.80954564     1.55600
O327        O  0.45070173  0.62674175  0.76220728    -0.78200
C328        C  0.42904040  0.56839387  0.84082329     0.97700
C329        C  0.41601130  0.46913551  0.79314188     0.92600
O330        O  0.41516401  0.49601198  0.77748433    -0.83500
O331        O  0.36722526  0.59232194  0.97790574    -0.82900
C332        C  0.21494062  0.59571743  0.93204347     0.96400
O333        O  0.24706361  0.62241813  0.92830767    -0.72100
O334        O  0.26221087  0.66210580  0.96333141    -0.75600
Al335      Al  0.29784867  0.63020577  0.94489400     1.49000
C336        C  0.27134435  0.66735373  0.98162303     0.91700
O337        O  0.25785735  0.54330043  0.99354506    -0.81900
O338        O  0.32138395  0.48461854  0.95006225    -0.75400
Al339      Al  0.31137088  0.56865570  0.98373549     1.90100
O340        O  0.24385478  0.49443054  0.96867155    -0.74500
O341        O  0.29870910  0.53804311  0.91933922    -0.74300
O342        O  0.22011447  0.55440567  0.93999660    -0.80000
O343        O  0.33475678  0.60460327  0.92537717    -0.78200
O344        O  0.29393571  0.57343040  0.95814537    -1.14300
O345        O  0.34812269  0.65272737  0.95850876    -0.73500
C346        C  0.37435970  0.63434549  0.97087374     0.97200
C347        C  0.23828113  0.50652407  0.98683904     0.93600
Al348      Al  0.27255486  0.52222048  0.94543674     1.55600
O349        O  0.29204433  0.63392092  0.99085512    -0.78200
C350        C  0.32847981  0.56787931  0.91463604     0.97700
C351        C  0.34005938  0.47584001  0.96650393     0.92600
O352        O  0.33507787  0.50357387  0.98144783    -0.83500
O353        O  0.67249842  0.50420588  0.02057616    -0.82900
C354        C  0.78527365  0.41556511  0.07491345     0.96400
O355        O  0.78168944  0.45464033  0.06492252    -0.72100
O356        O  0.75800527  0.51548331  0.03577617    -0.75600
Al357      Al  0.72897202  0.48609813  0.05826126     1.49000
C358        C  0.76830172  0.50260581  0.01825515     0.91700
O359        O  0.71873643  0.37386931  0.01328959    -0.81900
O360        O  0.65623311  0.35412303  0.04298377    -0.75400
Al361      Al  0.69713495  0.43859684  0.01916983     1.90100
O362        O  0.74417809  0.34700501  0.04222467    -0.74500
O363        O  0.66362400  0.40556806  0.07648588    -0.74300
O364        O  0.75231253  0.38885856  0.07722188    -0.80000
O365        O  0.70145925  0.46996940  0.08368346    -0.78200
O366        O  0.70993065  0.43460048  0.04523064    -1.14300
O367        O  0.67979945  0.52175325  0.05265989    -0.73500
C368        C  0.66465374  0.53139772  0.03553604     0.97200
C369        C  0.73917640  0.34201821  0.02360489     0.93600
Al370      Al  0.70431830  0.37872956  0.05870122     1.55600
O371        O  0.75258011  0.46369187  0.01148650    -0.78200
C372        C  0.66984062  0.44209816  0.08744613     0.97700
C373        C  0.63160670  0.37241827  0.02970083     0.92600
O374        O  0.64031905  0.41417410  0.02275760    -0.83500
O375        O  0.57565785  0.51903026  0.22426689    -0.82900
C376        C  0.45929676  0.41453575  0.17874415     0.96400
O377        O  0.46085753  0.45466277  0.18786836    -0.72100
O378        O  0.48471756  0.52271556  0.21426599    -0.75600
Al379      Al  0.51124336  0.49284002  0.19077072     1.49000
C380        C  0.48184887  0.50960857  0.23252855     0.91700
O381        O  0.54125671  0.38733819  0.23767639    -0.81900
O382        O  0.59856948  0.36897962  0.20617292    -0.75400
Al383      Al  0.55652899  0.45286862  0.22885937     1.90100
O384        O  0.51360692  0.35358654  0.21062888    -0.74500
O385        O  0.58079160  0.41827353  0.17156816    -0.74300
O386        O  0.49400988  0.39144669  0.17520911    -0.80000
O387        O  0.53347884  0.47573977  0.16419005    -0.78200
O388        O  0.53811072  0.44477458  0.20392945    -1.14300
O389        O  0.55834226  0.53479373  0.19265014    -0.73500
C390        C  0.57772787  0.54574640  0.20860360     0.97200
C391        C  0.52259376  0.35188022  0.22911617     0.93600
Al392      Al  0.54641166  0.38825359  0.19164484     1.55600
O393        O  0.50254736  0.47318268  0.23883702    -0.78200
C394        C  0.56661174  0.45072363  0.15967112     0.97700
C395        C  0.62219643  0.38999207  0.21897580     0.92600
O396        O  0.61402685  0.43354736  0.22319967    -0.83500
O397        O  0.35210327  0.09875237  0.48105953    -0.82900
C398        C  0.20813904  0.08998664  0.42882138     0.96400
O399        O  0.23894139  0.12010553  0.42666591    -0.72100
O400        O  0.25124687  0.16404171  0.46089451    -0.75600
Al401      Al  0.28928526  0.13151397  0.44378070     1.49000
C402        C  0.25527648  0.16766542  0.47963077     0.91700
O403        O  0.24086871  0.04350433  0.48903433    -0.81900
O404        O  0.32225052  0.99139550  0.44897154    -0.75400
Al405      Al  0.29614111  0.07087017  0.48312145     1.90100
O406        O  0.24253936  0.98912593  0.46574707    -0.74500
O407        O  0.29374439  0.04129021  0.41724964    -0.74300
O408        O  0.21548564  0.04965755  0.43738630    -0.80000
O409        O  0.32941094  0.10652356  0.42511052    -0.78200
O410        O  0.28539608  0.07524775  0.45688958    -1.14300
O411        O  0.33821709  0.15534367  0.45860240    -0.73500
C412        C  0.36138417  0.13913313  0.47284385     0.97200
C413        C  0.22868410  0.00273861  0.48263449     0.93600
Al414      Al  0.26975544  0.02241561  0.44339663     1.55600
O415        O  0.27248860  0.13346174  0.48968069    -0.78200
C416        C  0.32237256  0.07252402  0.41301821     0.97700
C417        C  0.33483758  0.98134469  0.46660097     0.92600
O418        O  0.32326427  0.00695780  0.48150737    -0.83500
O419        O  0.39206482  0.09275426  0.27481123    -0.82900
C420        C  0.53804749  0.10631216  0.32467999     0.96400
O421        O  0.50359064  0.13049750  0.32697389    -0.72100
O422        O  0.49308519  0.16950013  0.29103703    -0.75600
Al423      Al  0.45531742  0.13621136  0.30844065     1.49000
C424        C  0.48646315  0.17305843  0.27238416     0.91700
O425        O  0.50676917  0.05293326  0.26308098    -0.81900
O426        O  0.43761192  0.99126738  0.30584572    -0.75400
Al427      Al  0.45029075  0.07325812  0.27060484     1.90100
O428        O  0.51562251  0.00101792  0.28769885    -0.74500
O429        O  0.45906593  0.04834799  0.33619850    -0.74300
O430        O  0.53685203  0.06623251  0.31551891    -0.80000
O431        O  0.41614550  0.10787525  0.32682910    -0.78200
O432        O  0.46379887  0.07987273  0.29630507    -1.14300
O433        O  0.40670461  0.15682730  0.29232994    -0.73500
C434        C  0.38269246  0.13561063  0.27981859     0.97200
C435        C  0.52429510  0.01472414  0.26987119     0.93600
Al436      Al  0.48582750  0.03063430  0.31027684     1.55600
O437        O  0.46723054  0.13928510  0.26296396    -0.78200
C438        C  0.42692700  0.07606051  0.33971602     0.97700
C439        C  0.42348170  0.97961072  0.28875742     0.92600
O440        O  0.43051878  0.00612011  0.27334139    -0.83500
O441        O  0.08897686  0.49934593  0.72498335    -0.82900
C442        C  0.96428886  0.40775887  0.67874349     0.96400
O443        O  0.96978976  0.44738974  0.68769953    -0.72100
O444        O  0.99703131  0.51094104  0.71397977    -0.75600
Al445      Al  0.02279943  0.47978373  0.69113614     1.49000
C446        C  0.99209266  0.49829273  0.73210183     0.91700
O447        O  0.04329415  0.37310922  0.73811655    -0.81900
O448        O  0.09996525  0.34875167  0.70494118    -0.75400
Al449      Al  0.06474577  0.43524501  0.72940212     1.90100
O450        O  0.01464886  0.34083026  0.71101665    -0.74500
O451        O  0.08518991  0.39852998  0.67140234    -0.74300
O452        O  0.99672830  0.38063663  0.67554709    -0.80000
O453        O  0.04438910  0.46213918  0.66476413    -0.78200
O454        O  0.04571490  0.42913968  0.70425233    -1.14300
O455        O  0.07257330  0.51658791  0.69380925    -0.73500
C456        C  0.09171751  0.52745553  0.70981656     0.97200
C457        C  0.02177954  0.33978347  0.72974350     0.93600
Al458      Al  0.04901839  0.37226406  0.69165848     1.55600
O459        O  0.01236145  0.46215463  0.73912135    -0.78200
C460        C  0.07533798  0.43411284  0.66017758     0.97700
C461        C  0.12667129  0.36567661  0.71731108     0.92600
O462        O  0.12056096  0.40795305  0.72416714    -0.83500
O463        O  0.13837282  0.49377280  0.52547751    -0.82900
C464        C  0.28299708  0.41194205  0.56796918     0.96400
O465        O  0.27113138  0.45567720  0.56732747    -0.72100
O466        O  0.26225268  0.50547119  0.53377936    -0.75600
Al467      Al  0.22378087  0.48933334  0.55514115     1.49000
C468        C  0.25233971  0.51262915  0.51561783     0.91700
O469        O  0.21767779  0.39741736  0.50621262    -0.81900
O470        O  0.13943145  0.36617160  0.54895062    -0.75400
Al471      Al  0.17941199  0.44555363  0.51721822     1.90100
O472        O  0.21613993  0.34578812  0.53180912    -0.74500
O473        O  0.17978908  0.40266141  0.57978377    -0.74300
O474        O  0.25752207  0.37972719  0.56195947    -0.80000
O475        O  0.18885043  0.48179067  0.57842944    -0.78200
O476        O  0.20052374  0.43795682  0.54239547    -1.14300
O477        O  0.18167318  0.53382497  0.54569335    -0.73500
C478        C  0.14709729  0.53112423  0.53574677     0.97200
C479        C  0.22444143  0.35536975  0.51369413     0.93600
Al480      Al  0.19866029  0.37938322  0.55461241     1.55600
O481        O  0.21843375  0.49485240  0.50842758    -0.78200
C482        C  0.17432398  0.44430401  0.58708286     0.97700
C483        C  0.12176551  0.36874359  0.53192799     0.92600
O484        O  0.13549131  0.39802744  0.51886681    -0.83500
O485        O  0.87908292  0.08991243  0.77563954    -0.82900
C486        C  0.03524424  0.09373311  0.82071949     0.96400
O487        O  0.00283337  0.12087775  0.82343099    -0.72100
O488        O  0.98607279  0.15830003  0.78742296    -0.75600
Al489      Al  0.95137465  0.12838283  0.80719715     1.49000
C490        C  0.97786216  0.15893269  0.76878121     0.91700
O491        O  0.98798358  0.03782779  0.76078160    -0.81900
O492        O  0.92591364  0.98387417  0.80650755    -0.75400
Al493      Al  0.93524380  0.06347970  0.77018906     1.90100
O494        O  0.00254425  0.98880556  0.78601478    -0.74500
O495        O  0.95548670  0.03989348  0.83496439    -0.74300
O496        O  0.03025321  0.05336711  0.81211780    -0.80000
O497        O  0.91541147  0.10374992  0.82768277    -0.78200
O498        O  0.95432878  0.07082433  0.79525620    -1.14300
O499        O  0.90080011  0.15069734  0.79380878    -0.73500
C500        C  0.87350537  0.13282281  0.78202211     0.97200
C501        C  0.00781901  0.00148810  0.76787757     0.93600
Al502      Al  0.97683310  0.02079553  0.80880737     1.55600
O503        O  0.95532637  0.12577475  0.76091620    -0.78200
C504        C  0.92505462  0.06881669  0.83928847     0.97700
C505        C  0.90949893  0.97089261  0.79009957     0.92600
O506        O  0.91289370  0.99841250  0.77473660    -0.83500
O507        O  0.86349813  0.08337554  0.97574865    -0.82900
C508        C  0.71309914  0.10452828  0.92791305     0.96400
O509        O  0.74719168  0.12940610  0.92584390    -0.72100
O510        O  0.76137399  0.16320311  0.96243101    -0.75600
Al511      Al  0.79729208  0.13213916  0.94359446     1.49000
C512        C  0.77108630  0.16405680  0.98086582     0.91700
O513        O  0.74972940  0.04257307  0.98834122    -0.81900
O514        O  0.81467049  0.98775776  0.94318626    -0.75400
Al515      Al  0.80528880  0.06335995  0.98018303     1.90100
O516        O  0.73726960  0.99432005  0.96298859    -0.74500
O517        O  0.79056818  0.04750284  0.91515760    -0.74300
O518        O  0.71480287  0.06372334  0.93682615    -0.80000
O519        O  0.83454010  0.10599967  0.92400080    -0.78200
O520        O  0.78948441  0.07422976  0.95495768    -1.14300
O521        O  0.84748730  0.14992709  0.95936241    -0.73500
C522        C  0.87140037  0.12754394  0.97186591     0.97200
C523        C  0.73068039  0.00623654  0.98109123     0.93600
Al524      Al  0.76590995  0.02728426  0.94064967     1.55600
O525        O  0.78995281  0.12795944  0.98917299    -0.78200
C526        C  0.82377232  0.07320486  0.91180626     0.97700
C527        C  0.82957644  0.97263087  0.95965002     0.92600
O528        O  0.82392754  0.99684090  0.97564090    -0.83500
O529        O  0.88987694  0.67372134  0.97606859    -0.82900
C530        C  0.04002749  0.66789550  0.93013045     0.96400
O531        O  0.00861314  0.63930179  0.92682226    -0.72100
O532        O  0.99319183  0.60064450  0.96204188    -0.75600
Al533      Al  0.95681864  0.63128329  0.94334091     1.49000
C534        C  0.98693009  0.59876456  0.98067561     0.91700
O535        O  0.00142912  0.72183869  0.98791045    -0.81900
O536        O  0.92813806  0.77394774  0.94393030    -0.75400
Al537      Al  0.94657337  0.69682929  0.98033937     1.90100
O538        O  0.00575701  0.77376052  0.96321698    -0.74500
O539        O  0.95811399  0.71844914  0.91452316    -0.74300
O540        O  0.03359460  0.71010822  0.93677670    -0.80000
O541        O  0.91904543  0.65547957  0.92309222    -0.78200
O542        O  0.96111074  0.68920883  0.95484501    -1.14300
O543        O  0.90618072  0.60958356  0.95853408    -0.73500
C544        C  0.88174931  0.63063081  0.97110123     0.97200
C545        C  0.01627279  0.76122212  0.98095904     0.93600
Al546      Al  0.97997645  0.73992042  0.94061402     1.55600
O547        O  0.96664795  0.63311563  0.98914974    -0.78200
C548        C  0.92908606  0.68769113  0.91029169     0.97700
C549        C  0.91403162  0.78602357  0.96097426     0.92600
O550        O  0.92309357  0.76142619  0.97665516    -0.83500
O551        O  0.86430865  0.65651982  0.77079372    -0.82900
C552        C  0.71418461  0.66122766  0.81992482     0.96400
O553        O  0.74609958  0.63283771  0.82227412    -0.72100
O554        O  0.75713328  0.59411316  0.78657965    -0.75600
Al555      Al  0.79548725  0.62273103  0.80465809     1.49000
C556        C  0.76333233  0.59146884  0.76787482     0.91700
O557        O  0.75691480  0.71444501  0.75751755    -0.81900
O558        O  0.82373781  0.76704846  0.80080951    -0.75400
Al559      Al  0.80908288  0.68543136  0.76626392     1.90100
O560        O  0.74486886  0.76134351  0.78307234    -0.74500
O561        O  0.79908416  0.71170849  0.83146434    -0.74300
O562        O  0.72002553  0.70086532  0.81080505    -0.80000
O563        O  0.83542693  0.64645028  0.82359556    -0.78200
O564        O  0.79288187  0.67996173  0.79194735    -1.14300
O565        O  0.84366865  0.59687472  0.79019824    -0.73500
C566        C  0.87019364  0.61398079  0.77771777     0.97200
C567        C  0.73806721  0.75069402  0.76492422     0.93600
Al568      Al  0.77350691  0.73096132  0.80545645     1.55600
O569        O  0.78503430  0.62374370  0.75868969    -0.78200
C570        C  0.82854769  0.68079765  0.83559386     0.97700
C571        C  0.84092313  0.77645746  0.78404162     0.92600
O572        O  0.83556012  0.74876872  0.76910474    -0.83500
O573        O  0.09169660  0.26741688  0.02646170    -0.82900
C574        C  0.96148520  0.35581857  0.07459942     0.96400
O575        O  0.97243032  0.31166993  0.07442416    -0.72100
O576        O  0.96961913  0.26396228  0.04033192    -0.75600
Al577      Al  0.01419979  0.27475532  0.06003856     1.49000
C578        C  0.97565766  0.25640096  0.02185489     0.91700
O579        O  0.01426815  0.37058864  0.01211983    -0.81900
O580        O  0.10620448  0.38829412  0.05159948    -0.75400
Al581      Al  0.05202801  0.31895460  0.02073432     1.90100
O582        O  0.02952207  0.42095421  0.03674812    -0.74500
O583        O  0.06420452  0.35539930  0.08413641    -0.74300
O584        O  0.98701437  0.38732813  0.06753941    -0.80000
O585        O  0.05442273  0.27675386  0.08196423    -0.78200
O586        O  0.03757680  0.32541699  0.04672425    -1.14300
O587        O  0.05100532  0.22745872  0.04816413    -0.73500
C588        C  0.08278014  0.22914388  0.03632022     0.97200
C589        C  0.01511298  0.41316437  0.01936128     0.93600
Al590      Al  0.04586783  0.38254473  0.05905809     1.55600
O591        O  0.00891170  0.27311840  0.01357658    -0.78200
C592        C  0.06862283  0.31304234  0.09139303     0.97700
C593        C  0.11942201  0.38668484  0.03357963     0.92600
O594        O  0.09869669  0.36269357  0.02085248    -0.83500
O595        O  0.15218421  0.27402794  0.23031704    -0.82900
C596        C  0.28290613  0.35341061  0.17935280     0.96400
O597        O  0.26852082  0.31063881  0.17895289    -0.72100
O598        O  0.27218644  0.26655377  0.21428712    -0.75600
Al599      Al  0.22665635  0.27785835  0.19535080     1.49000
C600        C  0.26761473  0.26124531  0.23305204     0.91700
O601        O  0.22993610  0.37883595  0.24223404    -0.81900
O602        O  0.14240257  0.39860508  0.20223411    -0.75400
Al603      Al  0.19230913  0.32626716  0.23441729     1.90100
O604        O  0.21948614  0.42621772  0.21585413    -0.74500
O605        O  0.17959177  0.35969465  0.17021666    -0.74300
O606        O  0.25963221  0.38682288  0.18633578    -0.80000
O607        O  0.18315179  0.28088276  0.17501378    -0.78200
O608        O  0.20639241  0.33056341  0.20819447    -1.14300
O609        O  0.19082579  0.23272945  0.20865881    -0.73500
C610        C  0.16003806  0.23524529  0.22085290     0.97200
C611        C  0.23166527  0.42035938  0.23371210     0.93600
Al612      Al  0.20102665  0.38728528  0.19469412     1.55600
O613        O  0.23614879  0.28075799  0.24184702    -0.78200
C614        C  0.16915621  0.31708002  0.16514659     0.97700
C615        C  0.12770449  0.39636480  0.21991179     0.92600
O616        O  0.14561747  0.37018940  0.23310038    -0.83500
O617        O  0.36785798  0.67088406  0.27733147    -0.82900
C618        C  0.21184325  0.66955399  0.32248711     0.96400
O619        O  0.24448920  0.64275051  0.32544502    -0.72100
O620        O  0.25940356  0.60591032  0.28932234    -0.75600
Al621      Al  0.29526772  0.63426729  0.30897328     1.49000
C622        C  0.26733322  0.60535952  0.27065185     0.91700
O623        O  0.26132394  0.72908673  0.26217211    -0.81900
O624        O  0.32237489  0.77863467  0.30830522    -0.75400
Al625      Al  0.31270315  0.70019884  0.27189476     1.90100
O626        O  0.24611422  0.77597347  0.28760510    -0.74500
O627        O  0.29284773  0.72152832  0.33656762    -0.74300
O628        O  0.21702211  0.71004054  0.31367181    -0.80000
O629        O  0.33253998  0.65769329  0.32934813    -0.78200
O630        O  0.29325821  0.69238307  0.29689589    -1.14300
O631        O  0.34456786  0.60985414  0.29530601    -0.73500
C632        C  0.37162443  0.62702388  0.28315657     0.97200
C633        C  0.24152161  0.76500160  0.26932814     0.93600
Al634      Al  0.27125991  0.74217979  0.31041919     1.55600
O635        O  0.28997351  0.63880872  0.26268038    -0.78200
C636        C  0.32363153  0.69268519  0.34084895     0.97700
C637        C  0.34070409  0.79090726  0.29217693     0.92600
O638        O  0.33769438  0.76407471  0.27673620    -0.83500
O639        O  0.37953429  0.67343393  0.47708878    -0.82900
C640        C  0.53539490  0.66593757  0.43184320     0.96400
O641        O  0.50223157  0.64024976  0.42892577    -0.72100
O642        O  0.48438943  0.60080199  0.46434640    -0.75600
Al643      Al  0.45045602  0.63360431  0.44512960     1.49000
C644        C  0.47597287  0.59812020  0.48290203     0.91700
O645        O  0.49047836  0.71767977  0.49277781    -0.81900
O646        O  0.42953727  0.77879213  0.44755415    -0.75400
Al647      Al  0.43664447  0.69602971  0.48298986     1.90100
O648        O  0.50575045  0.76881086  0.46838040    -0.74500
O649        O  0.45639709  0.72366067  0.41834154    -0.74300
O650        O  0.53151189  0.70550740  0.44116343    -0.80000
O651        O  0.41496288  0.66102957  0.42507997    -0.78200
O652        O  0.45521675  0.68991903  0.45780595    -1.14300
O653        O  0.39917224  0.61279023  0.45837090    -0.73500
C654        C  0.37234570  0.63128351  0.47026091     0.97200
C655        C  0.51079440  0.75419251  0.48635934     0.93600
Al656      Al  0.47904295  0.73987091  0.44489417     1.55600
O657        O  0.45437980  0.63142437  0.49136913    -0.78200
C658        C  0.42504398  0.69619726  0.41377364     0.97700
C659        C  0.41358509  0.79123482  0.46409463     0.92600
O660        O  0.41654651  0.76291199  0.47929924    -0.83500
O661        O  0.65723607  0.24748285  0.72454050    -0.82900
C662        C  0.78670645  0.34733224  0.68234972     0.96400
O663        O  0.78159649  0.30745726  0.69139781    -0.72100
O664        O  0.75361375  0.24076694  0.71676531    -0.75600
Al665      Al  0.72886369  0.27296884  0.69326993     1.49000
C666        C  0.75368950  0.24997766  0.73538519     0.91700
O667        O  0.70062282  0.37273038  0.74133250    -0.81900
O668        O  0.65072819  0.40218167  0.70791890    -0.75400
Al669      Al  0.68023811  0.31131979  0.73090333     1.90100
O670        O  0.73498870  0.40572858  0.71559495    -0.74500
O671        O  0.66693935  0.35735867  0.67387678    -0.74300
O672        O  0.75395735  0.37379508  0.67909399    -0.80000
O673        O  0.70693832  0.29368893  0.66669102    -0.78200
O674        O  0.70321542  0.32081912  0.70655012    -1.14300
O675        O  0.68098703  0.23306432  0.69392177    -0.73500
C676        C  0.65924999  0.22095492  0.70898456     0.97200
C677        C  0.72476721  0.40568802  0.73402151     0.93600
Al678      Al  0.70162855  0.37953427  0.69500122     1.55600
O679        O  0.73032266  0.28327008  0.74224729    -0.78200
C680        C  0.67578335  0.32247407  0.66237507     0.97700
C681        C  0.62220027  0.38401665  0.71903302     0.92600
O682        O  0.62553180  0.33962963  0.72406916    -0.83500
O683        O  0.57978475  0.25063539  0.52508278    -0.82900
C684        C  0.45949751  0.34848518  0.57164752     0.96400
O685        O  0.46407632  0.30795638  0.56311829    -0.72100
O686        O  0.49001348  0.24247524  0.53686919    -0.75600
Al687      Al  0.51710036  0.27434680  0.55956804     1.49000
C688        C  0.48428588  0.25454582  0.51864349     0.91700
O689        O  0.53711358  0.37877743  0.51148259    -0.81900
O690        O  0.59306506  0.40270923  0.54422940    -0.75400
Al691      Al  0.55747498  0.31609274  0.52058474     1.90100
O692        O  0.50806291  0.41171072  0.53833824    -0.74500
O693        O  0.58034476  0.35605324  0.57811052    -0.74300
O694        O  0.49235084  0.37467406  0.57447049    -0.80000
O695        O  0.54007291  0.29306581  0.58574979    -0.78200
O696        O  0.53945481  0.32379769  0.54583715    -1.14300
O697        O  0.56750096  0.23674749  0.55695230    -0.73500
C698        C  0.58304799  0.22311273  0.54048525     0.97200
C699        C  0.51546875  0.41246114  0.51962524     0.93600
Al700      Al  0.54329459  0.38120250  0.55787388     1.55600
O701        O  0.50428670  0.29044343  0.51136168    -0.78200
C702        C  0.57117186  0.32129560  0.58982344     0.97700
C703        C  0.61961276  0.38521673  0.53204990     0.92600
O704        O  0.61397292  0.34239339  0.52556782    -0.83500
C705        C  0.66749339  0.30622888  0.62497299    -0.03000
C706        C  0.64874133  0.31621191  0.64389061     0.06700
C707        C  0.60333627  0.32305106  0.64499821    -0.03100
C708        C  0.57767918  0.32218578  0.62744020    -0.03100
C709        C  0.59684900  0.31483451  0.60855476     0.06800
C710        C  0.64157622  0.30550192  0.60743388    -0.03300
Br711      Br  0.66708962  0.29108846  0.58166482    -0.01800
Br712      Br  0.72899833  0.29715143  0.62256990    -0.01900
Br713      Br  0.51627525  0.33362743  0.62908894    -0.01900
Br714      Br  0.57523368  0.33360520  0.67054024    -0.01900
C715        C  0.45903504  0.53078886  0.50764617    -0.03000
C716        C  0.48806303  0.55279667  0.49390674     0.06700
C717        C  0.52494596  0.52660465  0.48775950    -0.03100
C718        C  0.53125744  0.47799366  0.49397923    -0.03100
C719        C  0.50245046  0.45631149  0.50789876     0.06800
C720        C  0.46519863  0.48205650  0.51369879    -0.03300
Br721      Br  0.41987733  0.44837401  0.52798893    -0.01800
Br722      Br  0.41157089  0.56649321  0.51930206    -0.01900
Br723      Br  0.57931718  0.44226251  0.48277465    -0.01900
Br724      Br  0.56977389  0.55917736  0.47267610    -0.01900
C725        C  0.39494370  0.70193270  0.35834446    -0.03000
C726        C  0.34944943  0.69968288  0.35945157     0.06700
C727        C  0.32913831  0.70342113  0.37836283    -0.03100
C728        C  0.35418457  0.70526971  0.39607242    -0.03100
C729        C  0.39969799  0.70378503  0.39503481     0.06800
C730        C  0.41998628  0.70432178  0.37606856    -0.03300
Br731      Br  0.48208010  0.70616405  0.37430100    -0.01800
Br732      Br  0.42307815  0.70298607  0.33244137    -0.01900
Br733      Br  0.32605045  0.71078216  0.42190288    -0.01900
Br734      Br  0.26699781  0.70342586  0.38025652    -0.01900
C735        C  0.21688877  0.48311327  0.25965658    -0.03000
C736        C  0.24407883  0.46517390  0.24442233     0.06700
C737        C  0.27447941  0.49680089  0.23546697    -0.03100
C738        C  0.28006246  0.54457347  0.24265460    -0.03100
C739        C  0.25442057  0.56163239  0.25884876     0.06800
C740        C  0.22070468  0.53167138  0.26608984    -0.03300
Br741      Br  0.17615082  0.55892423  0.28287728    -0.01800
Br742      Br  0.17195732  0.44260546  0.27084550    -0.01900
Br743      Br  0.32344997  0.58490107  0.22987285    -0.01900
Br744      Br  0.30854527  0.47448756  0.21301264    -0.01900
C745        C  0.10270106  0.33986848  0.14515686    -0.03000
C746        C  0.13987794  0.31025141  0.14746038     0.06700
C747        C  0.14844964  0.27463978  0.13271224    -0.03100
C748        C  0.12295520  0.27252513  0.11504450    -0.03100
C749        C  0.09004445  0.30735722  0.11146871     0.06800
C750        C  0.07846923  0.33902585  0.12719727    -0.03300
Br751      Br  0.02699794  0.37877926  0.12483319    -0.01800
Br752      Br  0.08191841  0.37853745  0.16719358    -0.01900
Br753      Br  0.13310670  0.22127156  0.09611781    -0.01900
Br754      Br  0.19591119  0.22950599  0.13611186    -0.01900
C755        C  0.71460142  0.51954544  0.76505132    -0.03000
C756        C  0.75024719  0.54621700  0.75765037     0.06700
C757        C  0.77907159  0.52378220  0.74406769    -0.03100
C758        C  0.77444633  0.47430923  0.73963857    -0.03100
C759        C  0.73766645  0.44853350  0.74593942     0.06800
C760        C  0.70872594  0.47055168  0.75959125    -0.03300
Br761      Br  0.66149099  0.43462323  0.77146637    -0.01800
Br762      Br  0.67142688  0.55142006  0.78132179    -0.01900
Br763      Br  0.82092252  0.44000655  0.72654268    -0.01900
Br764      Br  0.82499426  0.55915324  0.73080100    -0.01900
C765        C  0.02689093  0.51807065  0.98303463    -0.03000
C766        C  0.99866244  0.55300270  0.99179808     0.06700
C767        C  0.97587511  0.53957073  0.00943743    -0.03100
C768        C  0.97534729  0.49075473  0.01588875    -0.03100
C769        C  0.00356445  0.45656535  0.00738570     0.06800
C770        C  0.03024197  0.47074192  0.99128532    -0.03300
Br771      Br  0.07376905  0.42648289  0.98134788    -0.01800
Br772      Br  0.06451064  0.53444762  0.96084160    -0.01900
Br773      Br  0.93481578  0.47002504  0.03615999    -0.01900
Br774      Br  0.94971843  0.58716316  0.02681773    -0.01900
C775        C  0.89193796  0.73096390  0.88086971    -0.03000
C776        C  0.90711474  0.68757985  0.89017365     0.06700
C777        C  0.89898128  0.64265996  0.88067933    -0.03100
C778        C  0.87236896  0.64034639  0.86348186    -0.03100
C779        C  0.85508278  0.68361067  0.85457525     0.06800
C780        C  0.86556935  0.72904231  0.86343442    -0.03300
Br781      Br  0.84463376  0.78969640  0.85197052    -0.01800
Br782      Br  0.90772908  0.79365634  0.89157115    -0.01900
Br783      Br  0.85820136  0.57613811  0.85348372    -0.01900
Br784      Br  0.92768536  0.58385148  0.89009322    -0.01900
C785        C  0.85467509  0.83961557  0.94931524    -0.03000
C786        C  0.88941374  0.83148165  0.96247876     0.06700
C787        C  0.90400565  0.86909969  0.97509311    -0.03100
C788        C  0.88550849  0.91573946  0.97369692    -0.03100
C789        C  0.85105127  0.92448573  0.96024378     0.06800
C790        C  0.83536719  0.88582016  0.94811938    -0.03300
Br791      Br  0.78563119  0.89319452  0.93063606    -0.01800
Br792      Br  0.83210393  0.78616789  0.93365904    -0.01900
Br793      Br  0.91023680  0.96807400  0.98921112    -0.01900
Br794      Br  0.95054825  0.85814483  0.99386818    -0.01900
C795        C  0.90844686  0.14680251  0.00523475    -0.03000
C796        C  0.90290433  0.15637321  0.98427168     0.06700
C797        C  0.92089452  0.19965325  0.97619916    -0.03100
C798        C  0.94064497  0.23426478  0.98882204    -0.03100
C799        C  0.94617891  0.22481654  0.00966423     0.06800
C800        C  0.92960307  0.18078286  0.01775612    -0.03300
Br801      Br  0.93713365  0.16496527  0.04601476    -0.01800
Br802      Br  0.88811423  0.08721179  0.01769559    -0.01900
Br803      Br  0.95720017  0.29654782  0.97742658    -0.01900
Br804      Br  0.92168978  0.21039367  0.94740630    -0.01900
C805        C  0.85200022  0.85931907  0.76863132    -0.03000
C806        C  0.86511439  0.82259397  0.78230286     0.06700
C807        C  0.89409445  0.83384638  0.79769947    -0.03100
C808        C  0.90510754  0.88248320  0.80158294    -0.03100
C809        C  0.89081954  0.92071103  0.78836706     0.06800
C810        C  0.86427554  0.90824395  0.77170702    -0.03300
Br811      Br  0.84154998  0.95754656  0.75350646    -0.01800
Br812      Br  0.81797586  0.84261299  0.74534537    -0.01900
Br813      Br  0.94023577  0.89330501  0.82524988    -0.01900
Br814      Br  0.92171586  0.78069084  0.81215891    -0.01900
C815        C  0.85512257  0.05683730  0.85692745    -0.03000
C816        C  0.90020796  0.06236637  0.85802896     0.06700
C817        C  0.92058548  0.06521877  0.87691492    -0.03100
C818        C  0.89558058  0.06652274  0.89458894    -0.03100
C819        C  0.84995209  0.06570365  0.89339896     0.06800
C820        C  0.82990274  0.05906784  0.87449014    -0.03300
Br821      Br  0.76786856  0.05608116  0.87208570    -0.01800
Br822      Br  0.82818832  0.04470526  0.83120604    -0.01900
Br823      Br  0.92435073  0.06782554  0.92042285    -0.01900
Br824      Br  0.98265900  0.06937102  0.87851988    -0.01900
C825        C  0.79886778  0.14521783  0.76702777    -0.03000
C826        C  0.83830469  0.16499781  0.77379036     0.06700
C827        C  0.84544492  0.21602221  0.77080932    -0.03100
C828        C  0.81830685  0.24320608  0.75780595    -0.03100
C829        C  0.78146673  0.22168159  0.74949242     0.06800
C830        C  0.76941041  0.17475211  0.75617591    -0.03300
Br831      Br  0.71035198  0.15447009  0.75369814    -0.01800
Br832      Br  0.78343284  0.07880231  0.77353588    -0.01900
Br833      Br  0.83099773  0.31052622  0.75143979    -0.01900
Br834      Br  0.89197394  0.25065084  0.78381676    -0.01900
C835        C  0.30089400  0.62191258  0.48857081    -0.03000
C836        C  0.33599704  0.60040882  0.47825982     0.06700
C837        C  0.33905084  0.54834035  0.47822417    -0.03100
C838        C  0.31152408  0.52000816  0.49048255    -0.03100
C839        C  0.28024655  0.54254288  0.50245950     0.06800
C840        C  0.27368956  0.59320368  0.50084799    -0.03300
Br841      Br  0.22714047  0.62319961  0.51556051    -0.01800
Br842      Br  0.28704773  0.68981297  0.48471458    -0.01900
Br843      Br  0.31684254  0.44972533  0.49135785    -0.01900
Br844      Br  0.38027913  0.51333202  0.46189571    -0.01900
C845        C  0.36169244  0.43237446  0.57624189    -0.03000
C846        C  0.32774458  0.39772294  0.57477526     0.06700
C847        C  0.33789115  0.34803284  0.57875145    -0.03100
C848        C  0.38118832  0.33228120  0.57949170    -0.03100
C849        C  0.41518969  0.36607235  0.57717523     0.06800
C850        C  0.40504301  0.41649542  0.57808869    -0.03300
Br851      Br  0.44959096  0.46499816  0.58191000    -0.01800
Br852      Br  0.35076336  0.50197944  0.57541416    -0.01900
Br853      Br  0.39343768  0.26414349  0.58485537    -0.01900
Br854      Br  0.29320340  0.30048157  0.58416059    -0.01900
C855        C  0.02974156  0.22594466  0.76187537    -0.03000
C856        C  0.99131229  0.20184369  0.75673990     0.06700
C857        C  0.96250937  0.22396724  0.74282659    -0.03100
C858        C  0.97045292  0.27146421  0.73572117    -0.03100
C859        C  0.00836939  0.29613135  0.74132602     0.06800
C860        C  0.03713970  0.27387361  0.75521665    -0.03300
Br861      Br  0.08657646  0.30788788  0.76586678    -0.01800
Br862      Br  0.07500025  0.19078384  0.77584090    -0.01900
Br863      Br  0.92685523  0.30482962  0.72000054    -0.01900
Br864      Br  0.91247520  0.19011827  0.73268036    -0.01900
C865        C  0.16885750  0.45549375  0.62433665    -0.03000
C866        C  0.14861414  0.44846100  0.60563549     0.06700
C867        C  0.10371958  0.44079774  0.60475048    -0.03100
C868        C  0.07940061  0.43767988  0.62257539    -0.03100
C869        C  0.09990993  0.44224777  0.64139110     0.06800
C870        C  0.14457965  0.45216664  0.64222561    -0.03300
Br871      Br  0.17248739  0.46116272  0.66789746    -0.01800
Br872      Br  0.23006810  0.46769499  0.62532974    -0.01900
Br873      Br  0.01856032  0.42359346  0.62122248    -0.01900
Br874      Br  0.07560638  0.43438346  0.57897891    -0.01900
C875        C  0.90073175  0.53087341  0.76788219    -0.03000
C876        C  0.90566285  0.58242007  0.76954107     0.06700
C877        C  0.94249009  0.60425909  0.76084038    -0.03100
C878        C  0.97008623  0.57702055  0.74835828    -0.03100
C879        C  0.96300921  0.52679378  0.74536468     0.06800
C880        C  0.92928048  0.50353033  0.75579224    -0.03300
Br881      Br  0.92091414  0.43416537  0.75247761    -0.01800
Br882      Br  0.85498632  0.49593519  0.78147043    -0.01900
Br883      Br  0.01836985  0.60892244  0.73580163    -0.01900
Br884      Br  0.95768758  0.67060092  0.76738078    -0.01900
C885        C  0.86438143  0.32811132  0.67316509    -0.03000
C886        C  0.83120267  0.36322406  0.67617541     0.06700
C887        C  0.84202138  0.41330234  0.67428540    -0.03100
C888        C  0.88559662  0.42761120  0.67258877    -0.03100
C889        C  0.91922918  0.39242303  0.67329621     0.06800
C890        C  0.90794344  0.34267970  0.67140419    -0.03300
Br891      Br  0.95127280  0.29314061  0.66653161    -0.01800
Br892      Br  0.85115339  0.25933245  0.67117312    -0.01900
Br893      Br  0.89853933  0.49593522  0.66819116    -0.01900
Br894      Br  0.79849631  0.46413582  0.67497033    -0.01900
C895        C  0.41658617  0.89396398  0.27630804    -0.03000
C896        C  0.39965408  0.93336402  0.28726098     0.06700
C897        C  0.36348109  0.92639757  0.29955614    -0.03100
C898        C  0.34535076  0.87978550  0.30185346    -0.03100
C899        C  0.36254465  0.83935884  0.29109182     0.06800
C900        C  0.39828939  0.84712258  0.27823115    -0.03300
Br901      Br  0.42484801  0.79351239  0.26421332    -0.01800
Br902      Br  0.46596408  0.90354444  0.25917589    -0.01900
Br903      Br  0.29552655  0.87437436  0.31925690    -0.01900
Br904      Br  0.33753232  0.98226723  0.31249549    -0.01900
C905        C  0.33328886  0.14997098  0.24962908    -0.03000
C906        C  0.34781628  0.16392317  0.26909415     0.06700
C907        C  0.33366515  0.20943652  0.27675594    -0.03100
C908        C  0.31026439  0.24240129  0.26446447    -0.03100
C909        C  0.29713651  0.22902693  0.24492990     0.06800
C910        C  0.30757660  0.18197534  0.23790803    -0.03300
Br911      Br  0.28489879  0.15939629  0.21249165    -0.01800
Br912      Br  0.34766043  0.08737793  0.23804327    -0.01900
Br913      Br  0.29840294  0.30731663  0.27422698    -0.01900
Br914      Br  0.34314194  0.22660259  0.30461145    -0.01900
C915        C  0.39566951  0.92823392  0.45691557    -0.03000
C916        C  0.36008674  0.93631450  0.46941897     0.06700
C917        C  0.34375792  0.89790177  0.48133571    -0.03100
C918        C  0.36121223  0.85068354  0.47977587    -0.03100
C919        C  0.39454738  0.84109206  0.46582485     0.06800
C920        C  0.41221939  0.88088227  0.45456623    -0.03300
Br921      Br  0.46093968  0.87363382  0.43662854    -0.01800
Br922      Br  0.42266568  0.98345136  0.44368993    -0.01900
Br923      Br  0.33704597  0.79957811  0.49631223    -0.01900
Br924      Br  0.29571402  0.90878803  0.49910675    -0.01900
C925        C  0.27245182  0.23336712  0.50456264    -0.03000
C926        C  0.24534332  0.21538265  0.48907430     0.06700
C927        C  0.21466287  0.24735510  0.48006899    -0.03100
C928        C  0.21124588  0.29609274  0.48638250    -0.03100
C929        C  0.23853462  0.31360036  0.50161374     0.06800
C930        C  0.27028226  0.28269879  0.50993567    -0.03300
Br931      Br  0.31157498  0.30906653  0.52868428    -0.01800
Br932      Br  0.31328179  0.19229455  0.51896466    -0.01900
Br933      Br  0.16730246  0.33801181  0.47490463    -0.01900
Br934      Br  0.17453995  0.22428667  0.46005804    -0.01900
C935        C  0.36451520  0.02754543  0.38582141    -0.03000
C936        C  0.34738408  0.07134278  0.39372501     0.06700
C937        C  0.35697912  0.11581655  0.38380321    -0.03100
C938        C  0.38595952  0.11718331  0.36754450    -0.03100
C939        C  0.40204628  0.07352104  0.35908127     0.06800
C940        C  0.39133051  0.02858289  0.36850698    -0.03300
Br941      Br  0.41283861  0.96796420  0.35785522    -0.01800
Br942      Br  0.35170816  0.96574253  0.39855529    -0.01900
Br943      Br  0.40641684  0.18027525  0.35847112    -0.01900
Br944      Br  0.32731371  0.17539082  0.39099885    -0.01900
C945        C  0.43191757  0.14694582  0.49168258    -0.03000
C946        C  0.39712322  0.16962663  0.48143261     0.06700
C947        C  0.39413369  0.22148874  0.48183637    -0.03100
C948        C  0.42332544  0.24907738  0.49349625    -0.03100
C949        C  0.45487908  0.22558855  0.50549399     0.06800
C950        C  0.45962399  0.17442952  0.50405555    -0.03300
Br951      Br  0.50535166  0.14129654  0.51827772    -0.01800
Br952      Br  0.44400284  0.07842688  0.48771903    -0.01900
Br953      Br  0.41872426  0.31947341  0.49365061    -0.01900
Br954      Br  0.34925384  0.25647495  0.46745836    -0.01900
C955        C  0.49228106  0.30781628  0.25888032    -0.03000
C956        C  0.51410748  0.30633582  0.24040837     0.06700
C957        C  0.52921384  0.26109036  0.23299052    -0.03100
C958        C  0.52095451  0.21761172  0.24366695    -0.03100
C959        C  0.49801601  0.21893329  0.26187893     0.06800
C960        C  0.48440655  0.26444560  0.26965460    -0.03300
Br961      Br  0.45321841  0.26882376  0.29465017    -0.01800
Br962      Br  0.47119314  0.36918706  0.26903754    -0.01900
Br963      Br  0.54350244  0.15644760  0.23395177    -0.01900
Br964      Br  0.56367829  0.25777256  0.20886609    -0.01900
C965        C  0.41669166  0.51856008  0.25441729    -0.03000
C966        C  0.45542466  0.53786501  0.24698968     0.06700
C967        C  0.47125101  0.58148645  0.25534926    -0.03100
C968        C  0.44462506  0.61053519  0.26762079    -0.03100
C969        C  0.40377652  0.59345892  0.27364256     0.06800
C970        C  0.39220023  0.54475855  0.26860481    -0.03300
Br971      Br  0.34460440  0.51133891  0.28134778    -0.01800
Br972      Br  0.39775524  0.45559390  0.24523914    -0.01900
Br973      Br  0.46609836  0.67142182  0.27779064    -0.01900
Br974      Br  0.53118991  0.59789885  0.25273277    -0.01900
C975        C  0.40579596  0.34498608  0.17591575    -0.03000
C976        C  0.41616823  0.39472084  0.17288710     0.06700
C977        C  0.38317340  0.42694391  0.16644953    -0.03100
C978        C  0.33966344  0.41196186  0.16651189    -0.03100
C979        C  0.32844497  0.36440830  0.17304806     0.06800
C980        C  0.36221883  0.32979147  0.17591952    -0.03300
Br981      Br  0.35042137  0.26142205  0.18062262    -0.01800
Br982      Br  0.45044331  0.29711904  0.18109272    -0.01900
Br983      Br  0.29572726  0.45668558  0.15695649    -0.01900
Br984      Br  0.39773650  0.49145588  0.15677529    -0.01900
C985        C  0.75268153  0.20742266  0.01269271    -0.03000
C986        C  0.76484088  0.20950367  0.99228162     0.06700
C987        C  0.77565648  0.25520793  0.98344379    -0.03100
C988        C  0.77011097  0.29836687  0.99431238    -0.03100
C989        C  0.75396603  0.29655622  0.01401716     0.06800
C990        C  0.74815673  0.25065663  0.02366637    -0.03300
Br991      Br  0.73455845  0.24488063  0.05193337    -0.01800
Br992      Br  0.74065090  0.14554168  0.02578618    -0.01900
Br993      Br  0.78863487  0.35995586  0.98288405    -0.01900
Br994      Br  0.80133879  0.26046607  0.95705890    -0.01900
C995        C  0.62697601  0.48351873  0.13870593    -0.03000
C996        C  0.58829596  0.45717790  0.13999874     0.06700
C997        C  0.57332138  0.43197865  0.12310069    -0.03100
C998        C  0.59821263  0.43061445  0.10536255    -0.03100
C999        C  0.64045912  0.45099993  0.10499552     0.06800
C1000       C  0.65401035  0.47894836  0.12177033    -0.03300
Br1001     Br  0.71032466  0.50898988  0.12295674    -0.01800
Br1002     Br  0.64201040  0.52727707  0.16003384    -0.01900
Br1003     Br  0.57216479  0.40263299  0.08162702    -0.01900
Br1004     Br  0.51880920  0.39830904  0.12458449    -0.01900
C1005       C  0.82025829  0.57375206  0.01488633    -0.03000
C1006       C  0.79684837  0.53546047  0.00561016     0.06700
C1007       C  0.79730760  0.53341677  0.98414500    -0.03100
C1008       C  0.82364307  0.56560021  0.97271041    -0.03100
C1009       C  0.84746606  0.60262794  0.98219283     0.06800
C1010       C  0.84209816  0.60895981  0.00320036    -0.03300
Br1011     Br  0.86201534  0.66702771  0.01676771    -0.01800
Br1012     Br  0.82556980  0.57886806  0.04389368    -0.01900
Br1013     Br  0.82328268  0.56284758  0.94364996    -0.01900
Br1014     Br  0.76009763  0.48970081  0.96956764    -0.01900
C1015       C  0.83990579  0.35023279  0.08504910    -0.03000
C1016       C  0.82901755  0.40000441  0.08247638     0.06700
C1017       C  0.86230969  0.43466168  0.08474591    -0.03100
C1018       C  0.90602341  0.41984892  0.08466477    -0.03100
C1019       C  0.91698531  0.37019905  0.08167905     0.06800
C1020       C  0.88351054  0.33509890  0.08407802    -0.03300
Br1021     Br  0.89533081  0.26584587  0.08616060    -0.01800
Br1022     Br  0.79607700  0.30238372  0.09106906    -0.01900
Br1023     Br  0.95011086  0.46777662  0.08999618    -0.01900
Br1024     Br  0.84800393  0.50208165  0.08970305    -0.01900
C1025       C  0.20855657  0.42413588  0.99795970    -0.03000
C1026       C  0.21029859  0.47555784  0.00049422     0.06700
C1027       C  0.18649315  0.49600738  0.01668253    -0.03100
C1028       C  0.15904969  0.46653944  0.02875090    -0.03100
C1029       C  0.15680546  0.41567807  0.02577536     0.06800
C1030       C  0.18362042  0.39471169  0.01101533    -0.03300
Br1031     Br  0.18632186  0.32455972  0.00867325    -0.01800
Br1032     Br  0.23949562  0.39180608  0.97654974    -0.01900
Br1033     Br  0.12171427  0.49709239  0.04820277    -0.01900
Br1034     Br  0.18830169  0.56493473  0.02205551    -0.01900
C1035       C  0.10710920  0.64488232  0.94782894    -0.03000
C1036       C  0.08499292  0.65016003  0.92940862     0.06700
C1037       C  0.10669314  0.64023359  0.91124418    -0.03100
C1038       C  0.15023964  0.62431800  0.91170891    -0.03100
C1039       C  0.17077574  0.61550567  0.93033991     0.06800
C1040       C  0.14881826  0.62569196  0.94830674    -0.03300
Br1041     Br  0.17544472  0.61333499  0.97402113    -0.01800
Br1042     Br  0.08065321  0.66305975  0.97293984    -0.01900
Br1043     Br  0.18180318  0.61460749  0.88715998    -0.01900
Br1044     Br  0.07742137  0.65042225  0.88599890    -0.01900
C1045       C  0.36350954  0.54303640  0.86036539    -0.03000
C1046       C  0.40589652  0.56143032  0.86022531     0.06700
C1047       C  0.42417051  0.57788554  0.87827538    -0.03100
C1048       C  0.39964168  0.57808799  0.89619022    -0.03100
C1049       C  0.35605381  0.56157088  0.89625155     0.06800
C1050       C  0.33879965  0.54247855  0.87822305    -0.03300
Br1051     Br  0.28043581  0.51815277  0.87715382    -0.01800
Br1052     Br  0.33892874  0.51952769  0.83571633    -0.01900
Br1053     Br  0.42724583  0.60081492  0.92050920    -0.01900
Br1054     Br  0.48232862  0.60294042  0.87803274    -0.01900
C1055       C  0.52177675  0.42846785  0.74714108    -0.03000
C1056       C  0.53466631  0.47554596  0.75286342     0.06700
C1057       C  0.57080984  0.49624387  0.74352492    -0.03100
C1058       C  0.59728585  0.46787556  0.73086514    -0.03100
C1059       C  0.58878171  0.41700371  0.72821498     0.06800
C1060       C  0.54977180  0.39818012  0.73611521    -0.03300
Br1061     Br  0.53277613  0.33157056  0.73169897    -0.01800
Br1062     Br  0.46277486  0.40902957  0.75077860    -0.01900
Br1063     Br  0.64539113  0.50090786  0.71822731    -0.01900
Br1064     Br  0.58268884  0.56451423  0.74757986    -0.01900
C1065       C  0.61470818  0.58317342  0.83055670    -0.03000
C1066       C  0.58127499  0.61732831  0.82662404     0.06700
C1067       C  0.59174241  0.66751358  0.82649522    -0.03100
C1068       C  0.63539601  0.68235534  0.82639686    -0.03100
C1069       C  0.66929300  0.64718510  0.82649157     0.06800
C1070       C  0.65833162  0.59794932  0.83072450    -0.03300
Br1071     Br  0.70192428  0.54924871  0.83677482    -0.01800
Br1072     Br  0.60107673  0.51563973  0.83634385    -0.01900
Br1073     Br  0.64759521  0.75157456  0.82678394    -0.01900
Br1074     Br  0.54709979  0.71703519  0.82567658    -0.01900
C1075       C  0.64058715  0.11013669  0.52007170    -0.03000
C1076       C  0.62855531  0.07432634  0.53422254     0.06700
C1077       C  0.60263303  0.08718297  0.55060515    -0.03100
C1078       C  0.58813053  0.13539307  0.55290933    -0.03100
C1079       C  0.60112283  0.17253391  0.53895693     0.06800
C1080       C  0.62781437  0.15912081  0.52253887    -0.03300
Br1081     Br  0.65050993  0.20724505  0.50398133    -0.01800
Br1082     Br  0.67748702  0.09213878  0.49797453    -0.01900
Br1083     Br  0.54921580  0.14703512  0.57523239    -0.01900
Br1084     Br  0.58886448  0.03841378  0.57067841    -0.01900
C1085       C  0.55691715  0.85757491  0.51740273    -0.03000
C1086       C  0.59233361  0.83481868  0.52676883     0.06700
C1087       C  0.59930555  0.78428950  0.52409479    -0.03100
C1088       C  0.57235595  0.75761640  0.51106849    -0.03100
C1089       C  0.53879262  0.78147342  0.50046273     0.06800
C1090       C  0.53053287  0.83123720  0.50424583    -0.03300
Br1091     Br  0.48289417  0.86436403  0.49184389    -0.01800
Br1092     Br  0.54574578  0.92598667  0.52217093    -0.01900
Br1093     Br  0.58355290  0.68927133  0.50655243    -0.01900
Br1094     Br  0.64822966  0.75236921  0.53653397    -0.01900
C1095       C  0.64580778  0.08464184  0.71024470    -0.03000
C1096       C  0.60095990  0.08028575  0.70828941     0.06700
C1097       C  0.57546622  0.12249609  0.70465564    -0.03100
C1098       C  0.59418564  0.16882580  0.70608929    -0.03100
C1099       C  0.63887366  0.17294205  0.70850331     0.06800
C1100       C  0.66495562  0.13058644  0.70841261    -0.03300
Br1101     Br  0.72640953  0.13398872  0.70372091    -0.01800
Br1102     Br  0.68151648  0.02803966  0.71441854    -0.01900
Br1103     Br  0.55942399  0.22655654  0.70286903    -0.01900
Br1104     Br  0.51504590  0.11812429  0.69764577    -0.01900
C1105       C  0.53743812  0.77167295  0.75487594    -0.03000
C1106       C  0.50695732  0.79811034  0.74326237     0.06700
C1107       C  0.46600260  0.77750180  0.73964896    -0.03100
C1108       C  0.45656842  0.73007680  0.74650792    -0.03100
C1109       C  0.48711108  0.70362724  0.75804240     0.06800
C1110       C  0.52806367  0.72411633  0.76157024    -0.03300
Br1111     Br  0.57306506  0.68512475  0.77395511    -0.01800
Br1112     Br  0.59210485  0.79961222  0.76217134    -0.01900
Br1113     Br  0.40180766  0.70208781  0.73952897    -0.01900
Br1114     Br  0.42111816  0.81575272  0.72669192    -0.01900
C1115       C  0.57067617  0.93222041  0.62332192    -0.03000
C1116       C  0.58884488  0.94328403  0.64215179     0.06700
C1117       C  0.63257839  0.95710394  0.64326376    -0.03100
C1118       C  0.65798415  0.96018087  0.62573895    -0.03100
C1119       C  0.64051917  0.94695935  0.60702548     0.06800
C1120       C  0.59666181  0.93293571  0.60586995    -0.03300
Br1121     Br  0.57225219  0.91305546  0.58054166    -0.01800
Br1122     Br  0.51109270  0.91239826  0.62177825    -0.01900
Br1123     Br  0.71772711  0.97909505  0.62755895    -0.01900
Br1124     Br  0.65836593  0.96948435  0.66904746    -0.01900
C1125       C  0.66753075  0.79597578  0.72095943    -0.03000
C1126       C  0.66023770  0.84545247  0.72601293     0.06700
C1127       C  0.68220960  0.86433981  0.74305982    -0.03100
C1128       C  0.70578905  0.83326020  0.75609632    -0.03100
C1129       C  0.71014259  0.78280750  0.75186757     0.06800
C1130       C  0.69075828  0.76460722  0.73408120    -0.03300
Br1131     Br  0.69141890  0.69552946  0.72820144    -0.01800
Br1132     Br  0.64764667  0.77044403  0.69550377    -0.01900
Br1133     Br  0.73107843  0.86196861  0.78002446    -0.01900
Br1134     Br  0.68168690  0.93308624  0.74936195    -0.01900
C1135       C  0.78664915  0.72844844  0.50852068    -0.03000
C1136       C  0.75903417  0.70875089  0.49366940     0.06700
C1137       C  0.72349894  0.73707802  0.48692474    -0.03100
C1138       C  0.71828846  0.78562696  0.49321909    -0.03100
C1139       C  0.74694791  0.80578691  0.50734684     0.06800
C1140       C  0.78122310  0.77701999  0.51486097    -0.03300
Br1141     Br  0.82135493  0.80498412  0.53378948    -0.01800
Br1142     Br  0.82995900  0.68909405  0.52172425    -0.01900
Br1143     Br  0.66993794  0.82334771  0.48326681    -0.01900
Br1144     Br  0.67817035  0.70749204  0.47129391    -0.01900
C1145       C  0.69330250  0.39921222  0.51657210    -0.03000
C1146       C  0.65379652  0.41809219  0.52365812     0.06700
C1147       C  0.64600561  0.46936270  0.52142287    -0.03100
C1148       C  0.67294934  0.49800075  0.50899638    -0.03100
C1149       C  0.70927561  0.47706306  0.49994373     0.06800
C1150       C  0.72220340  0.42996253  0.50619071    -0.03300
Br1151     Br  0.78221664  0.41246731  0.50535374    -0.01800
Br1152     Br  0.70975395  0.33241236  0.52200042    -0.01900
Br1153     Br  0.66144081  0.56674678  0.50497159    -0.01900
Br1154     Br  0.59853427  0.50251053  0.53444941    -0.01900
C1155       C  0.58885591  0.59865988  0.42328423    -0.03000
C1156       C  0.57934153  0.64898661  0.42537468     0.06700
C1157       C  0.61357617  0.68272329  0.42302343    -0.03100
C1158       C  0.65683139  0.66643883  0.42224921    -0.03100
C1159       C  0.66655692  0.61627443  0.42500678     0.06800
C1160       C  0.63210628  0.58237210  0.42374661    -0.03300
Br1161     Br  0.64298437  0.51279326  0.42230833    -0.01800
Br1162     Br  0.54371536  0.55064215  0.41993073    -0.01900
Br1163     Br  0.70174210  0.71401122  0.41749999    -0.01900
Br1164     Br  0.60193446  0.75182369  0.42015257    -0.01900
C1165       C  0.85366278  0.56133245  0.35758451    -0.03000
C1166       C  0.89925012  0.56232325  0.35874402     0.06700
C1167       C  0.91908798  0.56058840  0.37784510    -0.03100
C1168       C  0.89373702  0.56200196  0.39552178    -0.03100
C1169       C  0.84803295  0.56292703  0.39441060     0.06800
C1170       C  0.82824100  0.56093900  0.37527335    -0.03300
Br1171     Br  0.76618361  0.56117910  0.37307593    -0.01800
Br1172     Br  0.82583273  0.56006624  0.33156669    -0.01900
Br1173     Br  0.92228743  0.56321693  0.42132574    -0.01900
Br1174     Br  0.98122323  0.55880819  0.37988163    -0.01900
C1175       C  0.07184461  0.50367934  0.24318045    -0.03000
C1176       C  0.03791384  0.47978600  0.25332990     0.06700
C1177       C  0.02851548  0.43090083  0.24843061    -0.03100
C1178       C  0.05532875  0.40482708  0.23523305    -0.03100
C1179       C  0.09155631  0.42734350  0.22664328     0.06800
C1180       C  0.09851711  0.47758601  0.22982819    -0.03300
Br1181     Br  0.14606690  0.51025460  0.21689137    -0.01800
Br1182     Br  0.08311029  0.57162164  0.24834833    -0.01900
Br1183     Br  0.04290310  0.33784459  0.22866618    -0.01900
Br1184     Br  0.97803765  0.39962923  0.25887562    -0.01900
C1185       C  0.08927144  0.66710031  0.33010513    -0.03000
C1186       C  0.08101851  0.61641766  0.32809473     0.06700
C1187       C  0.11621957  0.58384622  0.33051412    -0.03100
C1188       C  0.15892189  0.60163592  0.33153944    -0.03100
C1189       C  0.16743800  0.65202778  0.32831038     0.06800
C1190       C  0.13205735  0.68484664  0.32931938    -0.03300
Br1191     Br  0.14125575  0.75456996  0.33054904    -0.01800
Br1192     Br  0.04307253  0.71364185  0.33434661    -0.01900
Br1193     Br  0.20450086  0.55554428  0.33797325    -0.01900
Br1194     Br  0.10656075  0.51444879  0.33343215    -0.01900
C1195       C  0.09287192  0.13110128  0.20395709    -0.03000
C1196       C  0.10400832  0.09377787  0.21828376     0.06700
C1197       C  0.12907025  0.10702697  0.23531308    -0.03100
C1198       C  0.14408756  0.15538100  0.23735988    -0.03100
C1199       C  0.13339077  0.19119942  0.22291085     0.06800
C1200       C  0.10642871  0.17941736  0.20679627    -0.03300
Br1201     Br  0.08884811  0.23073081  0.18829431    -0.01800
Br1202     Br  0.05891612  0.11937800  0.17997445    -0.01900
Br1203     Br  0.18113039  0.17281580  0.25950917    -0.01900
Br1204     Br  0.14629828  0.05929961  0.25533446    -0.01900
C1205       C  0.97214812  0.77336719  0.23446725    -0.03000
C1206       C  0.00379060  0.80468030  0.24285601     0.06700
C1207       C  0.02963300  0.78658985  0.25897613    -0.03100
C1208       C  0.02606301  0.73768876  0.26529404    -0.03100
C1209       C  0.99208222  0.70829595  0.25839594     0.06800
C1210       C  0.96596431  0.72585714  0.24230047    -0.03300
Br1211     Br  0.92121224  0.68606553  0.23039747    -0.01800
Br1212     Br  0.93479900  0.79522618  0.21271072    -0.01900
Br1213     Br  0.07186273  0.70878721  0.28117834    -0.01900
Br1214     Br  0.07064229  0.82688391  0.27310905    -0.01900
C1215       C  0.15050477  0.79930003  0.23350169    -0.03000
C1216       C  0.15528715  0.85093628  0.23181375     0.06700
C1217       C  0.19151908  0.87286131  0.24095308    -0.03100
C1218       C  0.21972660  0.84482997  0.25311782    -0.03100
C1219       C  0.21272955  0.79441938  0.25605123     0.06800
C1220       C  0.17923704  0.77151782  0.24548413    -0.03300
Br1221     Br  0.17178150  0.70163349  0.24809263    -0.01800
Br1222     Br  0.10415929  0.76454456  0.22046356    -0.01900
Br1223     Br  0.26957172  0.87543180  0.26466958    -0.01900
Br1224     Br  0.20454057  0.94087978  0.23597283    -0.01900
C1225       C  0.08888030  0.14286392  0.02579921    -0.03000
C1226       C  0.10841750  0.18439038  0.03407365     0.06700
C1227       C  0.14885847  0.18039093  0.04339102    -0.03100
C1228       C  0.16709037  0.13407375  0.04689500    -0.03100
C1229       C  0.14708801  0.09187008  0.03889487     0.06800
C1230       C  0.10817627  0.09674263  0.02805968    -0.03300
Br1231     Br  0.07908922  0.04007580  0.01767772    -0.01800
Br1232     Br  0.03662589  0.14971660  0.01038579    -0.01900
Br1233     Br  0.22018460  0.13010903  0.06216854    -0.01900
Br1234     Br  0.18014553  0.23863089  0.05029813    -0.01900
C1235       C  0.25316689  0.75802676  0.98032560    -0.03000
C1236       C  0.25944979  0.71411612  0.99174781     0.06700
C1237       C  0.25530366  0.71623437  0.01292332    -0.03100
C1238       C  0.24030005  0.75906843  0.02199017    -0.03100
C1239       C  0.23873989  0.80370068  0.01105661     0.06800
C1240       C  0.24563595  0.80276344  0.99008734    -0.03300
Br1241     Br  0.24562995  0.86256813  0.97433449    -0.01800
Br1242     Br  0.25575843  0.76004175  0.95117278    -0.01900
Br1243     Br  0.21501473  0.75260851  0.04845244    -0.01900
Br1244     Br  0.27067138  0.66212992  0.03049790    -0.01900
C1245       C  0.17297688  0.94845862  0.12810873    -0.03000
C1246       C  0.15217855  0.95222528  0.10923332     0.06700
C1247       C  0.10702322  0.95879238  0.10855775    -0.03100
C1248       C  0.08241026  0.95725057  0.12640224    -0.03100
C1249       C  0.10294889  0.95161861  0.14526470     0.06800
C1250       C  0.14849533  0.94854734  0.14604224    -0.03300
Br1251     Br  0.17759554  0.94516315  0.17176711    -0.01800
Br1252     Br  0.23485096  0.94097853  0.12947917    -0.01900
Br1253     Br  0.02028440  0.95857330  0.12470019    -0.01900
Br1254     Br  0.07909622  0.97222014  0.08309317    -0.01900
C1255       C  0.06925792  0.82268051  0.02708593    -0.03000
C1256       C  0.09409234  0.85981385  0.01805032     0.06700
C1257       C  0.09181312  0.86564415  0.99677226    -0.03100
C1258       C  0.06743583  0.83333110  0.98483384    -0.03100
C1259       C  0.04412352  0.79415848  0.99378316     0.06800
C1260       C  0.04503904  0.78976157  0.01523836    -0.03300
Br1261     Br  0.01259972  0.74007052  0.02942647    -0.01800
Br1262     Br  0.06577491  0.81948872  0.05612473    -0.01900
Br1263     Br  0.06815051  0.84399051  0.95585380    -0.01900
Br1264     Br  0.12254367  0.91700811  0.98281342    -0.01900
C1265       C  0.08796822  0.64608162  0.51955941    -0.03000
C1266       C  0.08771822  0.67137538  0.53818288     0.06700
C1267       C  0.10127545  0.64631208  0.55583925    -0.03100
C1268       C  0.11245786  0.59702035  0.55496390    -0.03100
C1269       C  0.11842175  0.57417957  0.53632078     0.06800
C1270       C  0.10553343  0.59857624  0.51854790    -0.03300
Br1271     Br  0.11387364  0.56826499  0.49272903    -0.01800
Br1272     Br  0.06349064  0.67421940  0.49527544    -0.01900
Br1273     Br  0.11773960  0.56028988  0.57968886    -0.01900
Br1274     Br  0.10904131  0.67874358  0.58142060    -0.01900
C1275       C  0.16993925  0.94460953  0.52818879    -0.03000
C1276       C  0.14977370  0.90377297  0.51951301     0.06700
C1277       C  0.15841245  0.89335314  0.49901038    -0.03100
C1278       C  0.18263182  0.92603822  0.48697943    -0.03100
C1279       C  0.20054375  0.96930295  0.49529399     0.06800
C1280       C  0.19456289  0.97733057  0.51630902    -0.03300
Br1281     Br  0.22029296  0.03210665  0.52998630    -0.01800
Br1282     Br  0.16675607  0.95388462  0.55702257    -0.01900
Br1283     Br  0.18939139  0.90949751  0.45881316    -0.01900
Br1284     Br  0.13779682  0.83407172  0.48650008    -0.01900
C1285       C  0.92506423  0.69675136  0.47293592    -0.03000
C1286       C  0.90951147  0.65270931  0.48106789     0.06700
C1287       C  0.92129700  0.63989788  0.50097819    -0.03100
C1288       C  0.93882258  0.67512348  0.51396493    -0.03100
C1289       C  0.95041793  0.72241933  0.50645423     0.06800
C1290       C  0.94558115  0.73120747  0.48536367    -0.03300
Br1291     Br  0.96655431  0.78945268  0.47218814    -0.01800
Br1292     Br  0.92171303  0.70715434  0.44412446    -0.01900
Br1293     Br  0.94398794  0.65623075  0.54213924    -0.01900
Br1294     Br  0.91518636  0.57356381  0.51099779    -0.01900
C1295       C  0.90458827  0.92322949  0.58005852    -0.03000
C1296       C  0.91575408  0.87340624  0.58204133     0.06700
C1297       C  0.88352666  0.83983531  0.58771786    -0.03100
C1298       C  0.83975346  0.85321935  0.58684321    -0.03100
C1299       C  0.82783216  0.90156207  0.58153651     0.06800
C1300       C  0.86079616  0.93757367  0.58058069    -0.03300
Br1301     Br  0.84770796  0.00668768  0.57958380    -0.01800
Br1302     Br  0.94814535  0.97222046  0.57517093    -0.01900
Br1303     Br  0.79693535  0.80404572  0.59284152    -0.01900
Br1304     Br  0.89954585  0.77516399  0.59690222    -0.01900
C1305       C  0.12772812  0.59561010  0.72959385    -0.03000
C1306       C  0.11278968  0.57644616  0.71096492     0.06700
C1307       C  0.11139101  0.60806721  0.69385230    -0.03100
C1308       C  0.11928560  0.65793360  0.69596455    -0.03100
C1309       C  0.13612671  0.67630488  0.71402851     0.06800
C1310       C  0.14031521  0.64496305  0.73088780    -0.03300
Br1311     Br  0.16485930  0.66859410  0.75574040    -0.01800
Br1312     Br  0.13204957  0.55592444  0.75376965    -0.01900
Br1313     Br  0.10561662  0.70162745  0.67383492    -0.01900
Br1314     Br  0.10224432  0.58527024  0.66654235    -0.01900
C1315       C  0.09791895  0.81472124  0.64560139    -0.03000
C1316       C  0.14354743  0.81213533  0.64471124     0.06700
C1317       C  0.16382792  0.80748937  0.62582388    -0.03100
C1318       C  0.13904912  0.80829463  0.60800439    -0.03100
C1319       C  0.09353741  0.81081798  0.60890571     0.06800
C1320       C  0.07304284  0.81212456  0.62783555    -0.03300
Br1321     Br  0.01081508  0.81356178  0.62953351    -0.01800
Br1322     Br  0.06885189  0.82318051  0.67109059    -0.01900
Br1323     Br  0.16790832  0.80681032  0.58223450    -0.01900
Br1324     Br  0.22592311  0.80410418  0.62405547    -0.01900
C1325       C  0.02935786  0.92220617  0.75205615    -0.03000
C1326       C  0.03618562  0.97266230  0.75448865     0.06700
C1327       C  0.06807717  0.99612513  0.74292373    -0.03100
C1328       C  0.09473071  0.96897584  0.72994192    -0.03100
C1329       C  0.09004692  0.91734581  0.72868302     0.06800
C1330       C  0.05516753  0.89502972  0.73882304    -0.03300
Br1331     Br  0.04037679  0.82765975  0.73375997    -0.01800
Br1332     Br  0.98409156  0.88951238  0.76648976    -0.01900
Br1333     Br  0.13806291  0.00437991  0.71484173    -0.01900
Br1334     Br  0.07743424  0.06539323  0.74608175    -0.01900
C1335       C  0.32373642  0.70261419  0.78016182    -0.03000
C1336       C  0.33363831  0.65434023  0.77415236     0.06700
C1337       C  0.31343056  0.63660108  0.75640655    -0.03100
C1338       C  0.28879533  0.66813011  0.74389164    -0.03100
C1339       C  0.28411794  0.71831931  0.74853595     0.06800
C1340       C  0.30053451  0.73470729  0.76725586    -0.03300
Br1341     Br  0.29388434  0.80194943  0.77533958    -0.01800
Br1342     Br  0.34006376  0.72512746  0.80662443    -0.01900
Br1343     Br  0.26039704  0.64044838  0.72060037    -0.01900
Br1344     Br  0.31908925  0.56932069  0.74812064    -0.01900
C1345       C  0.35877432  0.82647623  0.66983189    -0.03000
C1346       C  0.32541561  0.86138454  0.67141186     0.06700
C1347       C  0.33610003  0.91130572  0.66971558    -0.03100
C1348       C  0.37951643  0.92586222  0.67147424    -0.03100
C1349       C  0.41264096  0.89045436  0.67426805     0.06800
C1350       C  0.40218049  0.84057160  0.67175529    -0.03300
Br1351     Br  0.44556120  0.78976321  0.67246261    -0.01800
Br1352     Br  0.34507542  0.75912505  0.66426174    -0.01900
Br1353     Br  0.39236550  0.99492066  0.67025661    -0.01900
Br1354     Br  0.29217239  0.96056061  0.66516017    -0.01900
C1355       C  0.40247913  0.36945345  0.94750118    -0.03000
C1356       C  0.39415106  0.33307639  0.96250770     0.06700
C1357       C  0.37202799  0.34696999  0.98031198    -0.03100
C1358       C  0.35879849  0.39576836  0.98299210    -0.03100
C1359       C  0.36592164  0.43064277  0.96767985     0.06800
C1360       C  0.39012744  0.41793937  0.95068168    -0.03300
Br1361     Br  0.40803661  0.46851389  0.93194632    -0.01800
Br1362     Br  0.42972059  0.35610136  0.92181663    -0.01900
Br1363     Br  0.33071723  0.41444711  0.00770540    -0.01900
Br1364     Br  0.35567674  0.29949441  0.00061281    -0.01900
C1365       C  0.54040597  0.33729675  0.99371621    -0.03000
C1366       C  0.54390374  0.28576871  0.99365062     0.06700
C1367       C  0.57127614  0.26300566  0.00796529    -0.03100
C1368       C  0.59538512  0.29111438  0.02169423    -0.03100
C1369       C  0.59584965  0.34288636  0.02022981     0.06800
C1370       C  0.56559312  0.36547401  0.00704426    -0.03300
Br1371     Br  0.55451942  0.43487754  0.00855335    -0.01800
Br1372     Br  0.49995309  0.37033643  0.97611752    -0.01900
Br1373     Br  0.62398035  0.25690324  0.04341201    -0.01900
Br1374     Br  0.57845024  0.19275152  0.00810436    -0.01900
C1375       C  0.59433092  0.10371897  0.91466217    -0.03000
C1376       C  0.58290276  0.15252279  0.91927275     0.06700
C1377       C  0.61615902  0.18777556  0.91962566    -0.03100
C1378       C  0.65962915  0.17310200  0.92126492    -0.03100
C1379       C  0.67039220  0.12292375  0.92066853     0.06800
C1380       C  0.63808293  0.08944522  0.91502142    -0.03300
Br1381     Br  0.65376050  0.02402717  0.90710016    -0.01800
Br1382     Br  0.55150507  0.05576362  0.90752640    -0.01900
Br1383     Br  0.70279057  0.22255305  0.92556635    -0.01900
Br1384     Br  0.60310016  0.25663191  0.91678811    -0.01900
C1385       C  0.32793559  0.01267436  0.99393466    -0.03000
C1386       C  0.29455875  0.03596769  0.00453375     0.06700
C1387       C  0.28456141  0.08497876  0.99964638    -0.03100
C1388       C  0.31118624  0.11241127  0.98668198    -0.03100
C1389       C  0.34781090  0.09079441  0.97790662     0.06800
C1390       C  0.35393577  0.03945081  0.98035496    -0.03300
Br1391     Br  0.39749116  0.00386076  0.96563494    -0.01800
Br1392     Br  0.33858056  0.94383252  0.99833404    -0.01900
Br1393     Br  0.29516682  0.17877016  0.97973254    -0.01900
Br1394     Br  0.23181526  0.11372477  0.00865490    -0.01900
C1395       C  0.40475761  0.33209071  0.79451487    -0.03000
C1396       C  0.35998205  0.32708189  0.79245048     0.06700
C1397       C  0.33330496  0.36908731  0.79265424    -0.03100
C1398       C  0.35177287  0.41551484  0.79127724    -0.03100
C1399       C  0.39656450  0.42053372  0.79305161     0.06800
C1400       C  0.42290043  0.37874276  0.79590119    -0.03300
Br1401     Br  0.48393773  0.38436849  0.80152822    -0.01800
Br1402     Br  0.44077718  0.27536706  0.79732851    -0.01900
Br1403     Br  0.31543466  0.47211914  0.78775354    -0.01900
Br1404     Br  0.27162490  0.36452936  0.79641943    -0.01900
C1405       C  0.21641940  0.97735693  0.75548851    -0.03000
C1406       C  0.24500462  0.95462066  0.74190040     0.06700
C1407       C  0.28268077  0.97942451  0.73578182    -0.03100
C1408       C  0.29078281  0.02719028  0.74237275    -0.03100
C1409       C  0.26171153  0.04997018  0.75578998     0.06800
C1410       C  0.22334669  0.02576331  0.76120958    -0.03300
Br1411     Br  0.17809383  0.06043928  0.77518991    -0.01800
Br1412     Br  0.16832890  0.94302853  0.76737865    -0.01900
Br1413     Br  0.34149439  0.06034322  0.73239747    -0.01900
Br1414     Br  0.32569088  0.94592704  0.72002555    -0.01900
C1415       C  0.39253435  0.18358507  0.85592683    -0.03000
C1416       C  0.34700041  0.18784390  0.85721018     0.06700
C1417       C  0.32785828  0.19633550  0.87614217    -0.03100
C1418       C  0.35374215  0.19727388  0.89365411    -0.03100
C1419       C  0.39889321  0.19150113  0.89227075     0.06800
C1420       C  0.41829079  0.18638491  0.87332829    -0.03300
Br1421     Br  0.48027705  0.18053019  0.87135836    -0.01800
Br1422     Br  0.42056944  0.17334299  0.83037640    -0.01900
Br1423     Br  0.32754237  0.20648517  0.91970010    -0.01900
Br1424     Br  0.26615262  0.20360649  0.87846460    -0.01900
C1425       C  0.20126647  0.35367776  0.73273408    -0.03000
C1426       C  0.16223927  0.33352225  0.72551954     0.06700
C1427       C  0.15602834  0.28217827  0.72796056    -0.03100
C1428       C  0.18428364  0.25434142  0.74028892    -0.03100
C1429       C  0.21999808  0.27635759  0.74945498     0.06800
C1430       C  0.23105079  0.32416916  0.74348552    -0.03300
Br1431     Br  0.28971130  0.34564074  0.74648510    -0.01800
Br1432     Br  0.21549582  0.42105187  0.72734351    -0.01900
Br1433     Br  0.17540679  0.18519660  0.74414192    -0.01900
Br1434     Br  0.10836074  0.24834182  0.71558544    -0.01900
C1435       C  0.11262620  0.07494936  0.82965847    -0.03000
C1436       C  0.07951444  0.10992590  0.82666027     0.06700
C1437       C  0.09054808  0.16004629  0.82759045    -0.03100
C1438       C  0.13426234  0.17407892  0.82747997    -0.03100
C1439       C  0.16722904  0.13858812  0.82563103     0.06800
C1440       C  0.15632768  0.08895837  0.82886351    -0.03300
Br1441     Br  0.19995139  0.03891338  0.83219584    -0.01800
Br1442     Br  0.09841698  0.00789410  0.83599981    -0.01900
Br1443     Br  0.14869387  0.24208618  0.83115680    -0.01900
Br1444     Br  0.04720639  0.21096649  0.82847735    -0.01900
C1445       C  0.47621535  0.07196403  0.75565065    -0.03000
C1446       C  0.46343361  0.02470711  0.75020222     0.06700
C1447       C  0.42906385  0.00277671  0.76054243    -0.03100
C1448       C  0.40350271  0.03046756  0.77381348    -0.03100
C1449       C  0.41118699  0.08156429  0.77602736     0.06800
C1450       C  0.44945488  0.10105623  0.76772470    -0.03300
Br1451     Br  0.46725070  0.16679262  0.77327084    -0.01800
Br1452     Br  0.53326747  0.09428451  0.74926010    -0.01900
Br1453     Br  0.35795350  0.99638486  0.78798548    -0.01900
Br1454     Br  0.41737812  0.93439952  0.75649186    -0.01900
C1455       C  0.57899352  0.63639697  0.20822354    -0.03000
C1456       C  0.60160209  0.59167464  0.20901410     0.06700
C1457       C  0.64691014  0.59122121  0.20914505    -0.03100
C1458       C  0.66939964  0.63538439  0.20747344    -0.03100
C1459       C  0.64686436  0.67998184  0.20931173     0.06800
C1460       C  0.60160958  0.68026311  0.21024006    -0.03300
Br1461     Br  0.57050643  0.74045119  0.21390860    -0.01800
Br1462     Br  0.51745408  0.63829020  0.20360513    -0.01900
Br1463     Br  0.73065386  0.63415210  0.20216122    -0.01900
Br1464     Br  0.67808369  0.53032235  0.21109305    -0.01900
C1465       C  0.56965005  0.94810424  0.22339886    -0.03000
C1466       C  0.59546319  0.91175178  0.23255993     0.06700
C1467       C  0.59798270  0.91048870  0.25390170    -0.03100
C1468       C  0.57983549  0.94813256  0.26546767    -0.03100
C1469       C  0.55204207  0.98318086  0.25657163     0.06800
C1470       C  0.54697459  0.98255287  0.23520885    -0.03300
Br1471     Br  0.50853832  0.02715356  0.22133963    -0.01800
Br1472     Br  0.56269944  0.94792827  0.19448835    -0.01900
Br1473     Br  0.59729754  0.95343437  0.29337264    -0.01900
Br1474     Br  0.62394856  0.85673783  0.26845121    -0.01900
C1475       C  0.83043892  0.75053879  0.25614065    -0.03000
C1476       C  0.79252120  0.73145227  0.24786357     0.06700
C1477       C  0.77707813  0.68631139  0.25519275    -0.03100
C1478       C  0.80374087  0.65573865  0.26703806    -0.03100
C1479       C  0.84407161  0.67264307  0.27379035     0.06800
C1480       C  0.85498270  0.72245205  0.26991724    -0.03300
Br1481     Br  0.90211894  0.75473161  0.28342415    -0.01800
Br1482     Br  0.84803660  0.81584552  0.24880612    -0.01900
Br1483     Br  0.78293201  0.59262419  0.27545004    -0.01900
Br1484     Br  0.71731472  0.66978190  0.25199278    -0.01900
C1485       C  0.86523450  0.84979638  0.16691000    -0.03000
C1486       C  0.83186806  0.88070260  0.17373806     0.06700
C1487       C  0.84107375  0.93086351  0.17612612    -0.03100
C1488       C  0.88414111  0.94739202  0.17558189    -0.03100
C1489       C  0.91864218  0.91381782  0.17300666     0.06800
C1490       C  0.90830538  0.86645716  0.16610938    -0.03300
Br1491     Br  0.95173872  0.82510609  0.15421318    -0.01800
Br1492     Br  0.85177058  0.78500301  0.15769020    -0.01900
Br1493     Br  0.89430607  0.01697943  0.17750525    -0.01900
Br1494     Br  0.79576894  0.97783811  0.18085110    -0.01900
C1495       C  0.59449782  0.63486322  0.05183459    -0.03000
C1496       C  0.60768961  0.67335715  0.03864393     0.06700
C1497       C  0.63663485  0.66233733  0.02275195    -0.03100
C1498       C  0.65310983  0.61462407  0.02060724    -0.03100
C1499       C  0.63974853  0.57708835  0.03376635     0.06800
C1500       C  0.60943432  0.58713657  0.04886605    -0.03300
Br1501     Br  0.58821216  0.53436974  0.06571897    -0.01800
Br1502     Br  0.55439189  0.64409064  0.07386704    -0.01900
Br1503     Br  0.69674899  0.60182796  0.00062396    -0.01900
Br1504     Br  0.65665298  0.71225499  0.00434506    -0.01900
C1505       C  0.52843926  0.01801589  0.98419532    -0.03000
C1506       C  0.49598042  0.04995879  0.99116504     0.06700
C1507       C  0.46829246  0.03417471  0.00696317    -0.03100
C1508       C  0.47185768  0.98657150  0.01481188    -0.03100
C1509       C  0.50476494  0.95501201  0.00811442     0.06800
C1510       C  0.53210111  0.97050920  0.99215864    -0.03300
Br1511     Br  0.57559401  0.92824586  0.98059807    -0.01800
Br1512     Br  0.57065880  0.03987823  0.96461122    -0.01900
Br1513     Br  0.42870439  0.96354154  0.03364056    -0.01900
Br1514     Br  0.42438921  0.07601517  0.01848454    -0.01900
C1515       C  0.67299556  0.80930847  0.12412966    -0.03000
C1516       C  0.65361722  0.81537053  0.14319305     0.06700
C1517       C  0.60804441  0.81662663  0.14453854    -0.03100
C1518       C  0.58242972  0.81704578  0.12704223    -0.03100
C1519       C  0.60195403  0.81481372  0.10800753     0.06800
C1520       C  0.64715967  0.80932262  0.10658951    -0.03300
Br1521     Br  0.67360289  0.80165807  0.08049728    -0.01800
Br1522     Br  0.73479148  0.80289816  0.12168423    -0.01900
Br1523     Br  0.52061914  0.82451235  0.12913394    -0.01900
Br1524     Br  0.57997122  0.81602919  0.17040185    -0.01900
C1525       C  0.68738531  0.89728061  0.01089690    -0.03000
C1526       C  0.65164601  0.91766326  0.02091737     0.06700
C1527       C  0.64397102  0.96893552  0.01878525    -0.03100
C1528       C  0.66920027  0.99736229  0.00545174    -0.03100
C1529       C  0.70278114  0.97583779  0.99441391     0.06800
C1530       C  0.71232672  0.92596873  0.99766086    -0.03300
Br1531     Br  0.76110945  0.89641547  0.98492641    -0.01800
Br1532     Br  0.70468554  0.83055860  0.01619472    -0.01900
Br1533     Br  0.65621418  0.06581247  0.00139260    -0.01900
Br1534     Br  0.59856527  0.00232934  0.03321133    -0.01900
C1535       C  0.44209393  0.64227987  0.99143904    -0.03000
C1536       C  0.40952743  0.66467887  0.97965706     0.06700
C1537       C  0.40596413  0.71642675  0.97981149    -0.03100
C1538       C  0.42970798  0.74387978  0.99375679    -0.03100
C1539       C  0.45932407  0.72076059  0.00683322     0.06800
C1540       C  0.46594514  0.66987650  0.00530865    -0.03300
Br1541     Br  0.50793017  0.63689217  0.02185366    -0.01800
Br1542     Br  0.45697728  0.57432071  0.98750459    -0.01900
Br1543     Br  0.41893626  0.81329580  0.99591964    -0.01900
Br1544     Br  0.37045214  0.75192825  0.96074192    -0.01900
C1545       C  0.38235393  0.82656172  0.07884706    -0.03000
C1546       C  0.41718182  0.86024082  0.07861698     0.06700
C1547       C  0.40755037  0.90998196  0.08276058    -0.03100
C1548       C  0.36425126  0.92632441  0.08317401    -0.03100
C1549       C  0.32997312  0.89381530  0.07944469     0.06800
C1550       C  0.33920615  0.84328360  0.07966077    -0.03300
Br1551     Br  0.29359686  0.79595181  0.08192955    -0.01800
Br1552     Br  0.39223165  0.75672564  0.07852252    -0.01900
Br1553     Br  0.35165493  0.99304097  0.09043666    -0.01900
Br1554     Br  0.45221631  0.95754474  0.08779141    -0.01900
C1555       C  0.91100510  0.38355399  0.29802598    -0.03000
C1556       C  0.89184440  0.42485586  0.28833862     0.06700
C1557       C  0.85554044  0.41762753  0.27578422    -0.03100
C1558       C  0.83818166  0.37054738  0.27337001    -0.03100
C1559       C  0.85626219  0.33031188  0.28368980     0.06800
C1560       C  0.89323157  0.33689942  0.29554936    -0.03300
Br1561     Br  0.92006318  0.28092186  0.30815281    -0.01800
Br1562     Br  0.96328800  0.38810075  0.31392673    -0.01900
Br1563     Br  0.78803784  0.36185385  0.25671006    -0.01900
Br1564     Br  0.82678896  0.47217621  0.26300574    -0.01900
C1565       C  0.71930256  0.00950186  0.23404787    -0.03000
C1566       C  0.73049930  0.96385524  0.24288086     0.06700
C1567       C  0.74105684  0.96175999  0.26351257    -0.03100
C1568       C  0.74267903  0.00485320  0.27482823    -0.03100
C1569       C  0.73837442  0.05093488  0.26510727     0.06800
C1570       C  0.72406789  0.05269916  0.24502396    -0.03300
Br1571     Br  0.70631278  0.11413525  0.23317901    -0.01800
Br1572     Br  0.69372922  0.01431574  0.20755946    -0.01900
Br1573     Br  0.74864208  0.99867864  0.30367650    -0.01900
Br1574     Br  0.75547736  0.90015293  0.27634002    -0.01900
C1575       C  0.67704306  0.32184772  0.22274350    -0.03000
C1576       C  0.65367508  0.36049271  0.23143032     0.06700
C1577       C  0.65489697  0.36523525  0.25272388    -0.03100
C1578       C  0.67491819  0.32935231  0.26495926    -0.03100
C1579       C  0.69875201  0.29057368  0.25637773     0.06800
C1580       C  0.69996142  0.28775484  0.23493150    -0.03300
Br1581     Br  0.73403621  0.23915671  0.22132869    -0.01800
Br1582     Br  0.68051830  0.31799070  0.19373553    -0.01900
Br1583     Br  0.66650684  0.33332293  0.29378274    -0.01900
Br1584     Br  0.63037798  0.42089388  0.26627018    -0.01900
C1585       C  0.63255308  0.19184639  0.33364952    -0.03000
C1586       C  0.66675096  0.15770611  0.33392249     0.06700
C1587       C  0.65676259  0.10840568  0.33834922    -0.03100
C1588       C  0.61362088  0.09241662  0.33739814    -0.03100
C1589       C  0.58033332  0.12534979  0.33190511     0.06800
C1590       C  0.58961081  0.17594660  0.33173029    -0.03300
Br1591     Br  0.54539343  0.22476831  0.32757306    -0.01800
Br1592     Br  0.64408918  0.26028087  0.33755867    -0.01900
Br1593     Br  0.60020625  0.02547385  0.34422724    -0.01900
Br1594     Br  0.70077347  0.06243744  0.34663135    -0.01900
C1595       C  0.95795965  0.09241315  0.24804359    -0.03000
C1596       C  0.95428024  0.04106984  0.24688355     0.06700
C1597       C  0.92375581  0.01722721  0.25924523    -0.03100
C1598       C  0.89585841  0.04438238  0.27168580    -0.03100
C1599       C  0.89746546  0.09624101  0.27180965     0.06800
C1600       C  0.93054975  0.11959285  0.26068780    -0.03300
Br1601     Br  0.94098367  0.18880726  0.26363317    -0.01800
Br1602     Br  0.00149461  0.12667275  0.23292035    -0.01900
Br1603     Br  0.85581621  0.00830809  0.28819665    -0.01900
Br1604     Br  0.91784228  0.94690194  0.25836845    -0.01900
C1605       C  0.89826758  0.42258244  0.46288812    -0.03000
C1606       C  0.85310878  0.42475412  0.46280205     0.06700
C1607       C  0.82846446  0.38163853  0.46166474    -0.03100
C1608       C  0.84898754  0.33646672  0.46369506    -0.03100
C1609       C  0.89410046  0.33425530  0.46282567     0.06800
C1610       C  0.91878626  0.37728605  0.46140048    -0.03300
Br1611     Br  0.98037167  0.37482766  0.45710479    -0.01800
Br1612     Br  0.93176074  0.48156297  0.46387227    -0.01900
Br1613     Br  0.81528579  0.27804201  0.46735438    -0.01900
Br1614     Br  0.76728264  0.38327331  0.45602312    -0.01900
C1615       C  0.95782394  0.00354500  0.48705076    -0.03000
C1616       C  0.97598070  0.04820453  0.49315434     0.06700
C1617       C  0.00385947  0.04975225  0.50972927    -0.03100
C1618       C  0.01654986  0.00625833  0.51920099    -0.03100
C1619       C  0.99915716  0.96137431  0.51278532     0.06800
C1620       C  0.96838587  0.96043662  0.49735896    -0.03300
Br1621     Br  0.93751794  0.90127063  0.49182847    -0.01800
Br1622     Br  0.91694288  0.00072472  0.46526860    -0.01900
Br1623     Br  0.05860838  0.00930566  0.54055425    -0.01900
Br1624     Br  0.02499454  0.11132222  0.51933591    -0.01900
C1625       C  0.92110799  0.19172057  0.37522789    -0.03000
C1626       C  0.90113165  0.20169754  0.39371854     0.06700
C1627       C  0.85654116  0.21200580  0.39416306    -0.03100
C1628       C  0.83176389  0.21141866  0.37636021    -0.03100
C1629       C  0.85130840  0.19941220  0.35782823     0.06800
C1630       C  0.89624884  0.18915587  0.35745236    -0.03300
Br1631     Br  0.92435360  0.16869396  0.33300557    -0.01800
Br1632     Br  0.98220844  0.17795993  0.37454042    -0.01900
Br1633     Br  0.77010398  0.22151466  0.37815774    -0.01900
Br1634     Br  0.82897952  0.22564114  0.41947140    -0.01900
C1635       C  0.07545810  0.25745151  0.50778289    -0.03000
C1636       C  0.03525165  0.27511143  0.50111926     0.06700
C1637       C  0.01949300  0.31941026  0.50900223    -0.03100
C1638       C  0.04713755  0.35029507  0.51982806    -0.03100
C1639       C  0.08823448  0.33364027  0.52570924     0.06800
C1640       C  0.10059038  0.28533781  0.52109301    -0.03300
Br1641     Br  0.15204164  0.25717728  0.53262865    -0.01800
Br1642     Br  0.09688034  0.19613544  0.49804310    -0.01900
Br1643     Br  0.02906798  0.41567031  0.52622892    -0.01900
Br1644     Br  0.95934672  0.33585861  0.50699679    -0.01900
C1645       C  0.10773463  0.16739252  0.41890534    -0.03000
C1646       C  0.07513175  0.13530613  0.42579291     0.06700
C1647       C  0.08533869  0.08535319  0.42818187    -0.03100
C1648       C  0.12838326  0.06918936  0.42627483    -0.03100
C1649       C  0.16237985  0.10308436  0.42306560     0.06800
C1650       C  0.15091091  0.15121472  0.41714529    -0.03300
Br1651     Br  0.19302823  0.19517889  0.40562599    -0.01800
Br1652     Br  0.09351972  0.23397588  0.41165312    -0.01900
Br1653     Br  0.13899447  0.99969520  0.42695923    -0.01900
Br1654     Br  0.04163192  0.03843225  0.43563478    -0.01900
C1655       C  0.79697400  0.08876499  0.51387544    -0.03000
C1656       C  0.78715681  0.04127238  0.50729510     0.06700
C1657       C  0.79619379  0.02910188  0.48704182    -0.03100
C1658       C  0.81597656  0.06321751  0.47399613    -0.03100
C1659       C  0.83201047  0.10767189  0.48147603     0.06800
C1660       C  0.82044153  0.12117382  0.50142878    -0.03300
Br1661     Br  0.83546592  0.18372922  0.51266714    -0.01800
Br1662     Br  0.77511212  0.11166249  0.53938119    -0.01900
Br1663     Br  0.81724833  0.05077398  0.44540393    -0.01900
Br1664     Br  0.78351284  0.96481953  0.47697733    -0.01900
loop_ 
_geom_bond_atom_site_label_1 
_geom_bond_atom_site_label_2 
_geom_bond_distance 
_geom_bond_site_symmetry_2 
_ccdc_geom_bond_type 
O1           C16   1.253       .  A
O1           Al9   1.893       .  S
C2           O12   1.260       .  A
C2            O3   1.271   1_455  A
C2         C1646   1.496       .  S
O3           Al5   1.961       .  S
O4            C6   1.258       .  A
O4           Al5   1.862       .  S
Al5          O13   1.876       .  S
Al5          O15   1.949       .  S
Al5          O14   1.775       .  S
C6           O19   1.269       .  A
C6         C1616   1.458       .  S
O7           C17   1.257   1_655  A
O7           Al9   1.892       .  S
O8           C21   1.255       .  A
O8          Al18   1.858       .  S
Al9          O22   1.915       .  S
Al9          O19   1.934       .  S
Al9          O14   1.770       .  S
O10          C17   1.268       .  A
O10         Al18   1.951   1_455  S
O11          C20   1.274       .  A
O11         Al18   1.963       .  S
O12         Al18   1.888   1_455  S
O13          C20   1.259       .  A
O14         Al18   1.772       .  S
O15          C16   1.266       .  A
C16        C1659   1.504       .  S
C17        C1636   1.485       .  S
C20        C1626   1.483       .  S
C21          O22   1.265       .  A
C21        C1609   1.451       .  S
O23          C38   1.261       .  A
O23         Al31   1.892       .  S
C24          O34   1.262       .  A
C24          O25   1.266       .  A
C24        C1586   1.499       .  S
O25         Al27   1.939       .  S
O26          C28   1.256       .  A
O26         Al27   1.882       .  S
Al27         O35   1.882       .  S
Al27         O37   1.931       .  S
Al27         O36   1.777       .  S
C28          O41   1.271       .  A
C28        C1569   1.487       .  S
O29          C39   1.258       .  A
O29         Al31   1.913       .  S
O30          C43   1.258       .  A
O30         Al40   1.865       .  S
Al31         O44   1.964       .  S
Al31         O41   1.940       .  S
Al31         O36   1.777       .  S
O32          C39   1.267       .  A
O32         Al40   1.941       .  S
O33          C42   1.270       .  A
O33         Al40   1.948       .  S
O34         Al40   1.893       .  S
O35          C42   1.258       .  A
O36         Al40   1.770       .  S
O37          C38   1.264       .  A
C38        C1599   1.505       .  S
C39        C1579   1.516       .  S
C42        C1629   1.492       .  S
C43          O44   1.273       .  A
C43        C1559   1.477       .  S
O45          C60   1.269       .  A
O45         Al53   1.940       .  S
C46          O56   1.265       .  A
C46          O47   1.261       .  A
C46        C1546   1.511       .  S
O47         Al49   1.898       .  S
O48          C50   1.262       .  A
O48         Al49   1.934       .  S
Al49         O57   1.938       .  S
Al49         O59   1.885       .  S
Al49         O58   1.773       .  S
C50          O63   1.256       .  A
C50        C1539   1.485       .  S
O51          C61   1.263       .  A
O51         Al53   1.907       .  S
O52          C65   1.255       .  A
O52         Al62   1.900       .  S
Al53         O66   1.907       .  S
Al53         O63   1.877       .  S
Al53         O58   1.776       .  S
O54          C61   1.264       .  A
O54         Al62   1.885       .  S
O55          C64   1.258       .  A
O55         Al62   1.889       .  S
O56         Al62   1.944       .  S
O57          C64   1.267       .  A
O58         Al62   1.779       .  S
O59          C60   1.258       .  A
C60        C1496   1.497       .  S
C61        C1509   1.487       .  S
C64        C1519   1.479       .  S
C65          O66   1.266       .  A
C65        C1526   1.501       .  S
O67          C82   1.268       .  A
O67         Al75   1.930       .  S
C68          O78   1.266       .  A
C68          O69   1.263       .  A
C68        C1486   1.499       .  S
O69         Al71   1.903       .  S
O70          C72   1.266       .  A
O70         Al71   1.947       .  S
Al71         O79   1.954       .  S
Al71         O81   1.866       .  S
Al71         O80   1.780       .  S
C72          O85   1.254       .  A
C72        C1476   1.483       .  S
O73          C83   1.270       .  A
O73         Al75   1.937       .  S
O74          C87   1.265       .  A
O74         Al84   1.947       .  S
Al75         O88   1.902       .  S
Al75         O85   1.883       .  S
Al75         O80   1.770       .  S
O76          C83   1.263       .  A
O76         Al84   1.890       .  S
O77          C86   1.263       .  A
O77         Al84   1.881       .  S
O78         Al84   1.949       .  S
O79          C86   1.273       .  A
O80         Al84   1.777       .  S
O81          C82   1.256       .  A
C82        C1459   1.465       .  S
C83        C1566   1.482       .  S
C86        C1516   1.490       .  S
C87          O88   1.257       .  A
C87        C1466   1.503       .  S
O89         C104   1.262       .  A
O89         Al97   1.913       .  S
C90         O100   1.256       .  A
C90          O91   1.259       .  A
C90        C1439   1.497       .  S
O91         Al93   1.932       .  S
O92          C94   1.267       .  A
O92         Al93   1.865       .  S
Al93        O101   1.867       .  S
Al93        O103   1.894       .  S
Al93        O102   1.783       .  S
C94         O107   1.272       .  A
C94        C1409   1.482       .  S
O95         C105   1.255       .  A
O95         Al97   1.893       .  S
O96         C109   1.250       .  A
O96        Al106   1.849       .  S
Al97        O110   1.945       .  S
Al97        O107   1.941       .  S
Al97        O102   1.786       .  S
O98         C105   1.267       .  A
O98        Al106   1.947       .  S
O99         C108   1.276       .  A
O99        Al106   1.965       .  S
O100       Al106   1.894       .  S
O101        C108   1.260       .  A
O102       Al106   1.773       .  S
O103        C104   1.252       .  A
C104       C1449   1.501       .  S
C105       C1429   1.493       .  S
C108       C1416   1.489       .  S
C109        O110   1.271       .  A
C109       C1396   1.468       .  S
O111        C126   1.266       .  A
O111       Al119   1.909       .  S
C112        O122   1.261       .  A
C112        O113   1.263       .  A
C112       C1376   1.501       .  S
O113       Al115   1.943       .  S
O114        C116   1.263       .  A
O114       Al115   1.880       .  S
Al115       O123   1.884       .  S
Al115       O125   1.903       .  S
Al115       O124   1.779       .  S
C116        O129   1.263       .  A
C116       C1506   1.487       .  S
O117        C127   1.259       .  A
O117       Al119   1.889       .  S
O118        C131   1.254       .  A
O118       Al128   1.873       .  S
Al119       O132   1.936       .  S
Al119       O129   1.908       .  S
Al119       O124   1.778       .  S
O120        C127   1.266       .  A
O120       Al128   1.946       .  S
O121        C130   1.266       .  A
O121       Al128   1.938       .  S
O122       Al128   1.881       .  S
O123        C130   1.257       .  A
O124       Al128   1.771       .  S
O125        C126   1.257       .  A
C126       C1389   1.498       .  S
C127       C1366   1.500       .  S
C130       C1419   1.477       .  S
C131        O132   1.266       .  A
C131       C1356   1.496       .  S
O133        C148   1.267       .  A
O133       Al141   1.931       .  S
C134        O144   1.259       .  A
C134        O135   1.254       .  A
C134       C1346   1.492       .  S
O135       Al137   1.879       .  S
O136        C138   1.262       .  A
O136       Al137   1.922       .  S
Al137       O145   1.957       .  S
Al137       O147   1.848       .  S
Al137       O146   1.774       .  S
C138        O151   1.256       .  A
C138       C1339   1.508       .  S
O139        C149   1.271       .  A
O139       Al141   1.932       .  S
O140        C153   1.252       .  A
O140       Al150   1.900       .  S
Al141       O154   1.894       .  S
Al141       O151   1.892       .  S
Al141       O146   1.784       .  S
O142        C149   1.265       .  A
O142       Al150   1.877       .  S
O143        C152   1.260       .  A
O143       Al150   1.881       .  S
O144       Al150   1.933       .  S
O145        C152   1.274       .  A
O146       Al150   1.791       .  S
O147        C148   1.255       .  A
C148       C1309   1.479       .  S
C149       C1406   1.481       .  S
C152       C1316   1.489       .  S
C153        O154   1.257       .  A
C153       C1329   1.497       .  S
O155        C170   1.267       .  A
O155       Al163   1.929       .  S
C156        O166   1.267       .  A
C156        O157   1.258       .  A
C156       C1296   1.489       .  S
O157       Al159   1.879   1_655  S
O158        C160   1.255       .  A
O158       Al159   1.915   1_655  S
Al159       O167   1.956       .  S
Al159       O169   1.858       .  S
Al159       O168   1.763       .  S
C160        O173   1.262       .  A
C160       C1289   1.514       .  S
O161        C171   1.273       .  A
O161       Al163   1.947       .  S
O162        C175   1.264       .  A
O162       Al172   1.940       .  S
Al163       O176   1.896       .  S
Al163       O173   1.901   1_455  S
Al163       O168   1.772       .  S
O164        C171   1.255       .  A
O164       Al172   1.854       .  S
O165        C174   1.261       .  A
O165       Al172   1.877       .  S
O166       Al172   1.950   1_655  S
O167        C174   1.273       .  A
O168       Al172   1.780       .  S
O169        C170   1.259       .  A
C170       C1266   1.488       .  S
C171       C1619   1.460   1_455  S
C174       C1319   1.485       .  S
C175        O176   1.254       .  A
C175       C1276   1.504       .  S
O177        C192   1.272       .  A
O177       Al185   1.944   1_545  S
C178        O188   1.270       .  A
C178        O179   1.263       .  A
C178       C1549   1.504       .  S
O179       Al181   1.897       .  S
O180        C182   1.269       .  A
O180       Al181   1.961   1_545  S
Al181       O189   1.958       .  S
Al181       O191   1.877   1_565  S
Al181       O190   1.771       .  S
C182        O195   1.256   1_545  A
C182       C1386   1.491       .  S
O183        C193   1.272       .  A
O183       Al185   1.958       .  S
O184        C197   1.270       .  A
O184       Al194   1.966       .  S
Al185       O198   1.901       .  S
Al185       O195   1.885       .  S
Al185       O190   1.764       .  S
O186        C193   1.260       .  A
O186       Al194   1.882       .  S
O187        C196   1.265       .  A
O187       Al194   1.896       .  S
O188       Al194   1.958       .  S
O189        C196   1.272       .  A
O190       Al194   1.770       .  S
O191        C192   1.258       .  A
C192       C1229   1.480       .  S
C193       C1239   1.493       .  S
C196       C1246   1.489       .  S
C197        O198   1.258       .  A
C197       C1256   1.509       .  S
O199        C214   1.272       .  A
O199       Al207   1.965   1_545  S
C200        O210   1.266       .  A
C200        O201   1.259       .  A
C200       C1489   1.507       .  S
O201       Al203   1.877   1_655  S
O202        C204   1.267       .  A
O202       Al203   1.946   1_645  S
Al203       O211   1.944       .  S
Al203       O213   1.882   1_565  S
Al203       O212   1.770       .  S
C204        O217   1.259   1_645  A
C204       C1596   1.496       .  S
O205        C215   1.267       .  A
O205       Al207   1.939       .  S
O206        C219   1.262       .  A
O206       Al216   1.914       .  S
Al207       O220   1.902       .  S
Al207       O217   1.889       .  S
Al207       O212   1.784       .  S
O208        C215   1.259       .  A
O208       Al216   1.876       .  S
O209        C218   1.257       .  A
O209       Al216   1.891       .  S
O210       Al216   1.950   1_655  S
O211        C218   1.266       .  A
O212       Al216   1.778       .  S
O213        C214   1.255       .  A
C214       C1196   1.505       .  S
C215       C1206   1.499       .  S
C218       C1249   1.491       .  S
C219        O220   1.266       .  A
C219       C1216   1.499       .  S
O221        C236   1.266       .  A
O221       Al229   1.923       .  S
C222        O232   1.261       .  A
C222        O223   1.261       .  A
C222       C1186   1.508       .  S
O223       Al225   1.930   1_455  S
O224        C226   1.269       .  A
O224       Al225   1.897       .  S
Al225       O233   1.892       .  S
Al225       O235   1.890       .  S
Al225       O234   1.781       .  S
C226        O239   1.266       .  A
C226       C1209   1.494       .  S
O227        C237   1.255   1_655  A
O227       Al229   1.884       .  S
O228        C241   1.258       .  A
O228       Al238   1.883       .  S
Al229       O242   1.943       .  S
Al229       O239   1.921       .  S
Al229       O234   1.783       .  S
O230        C237   1.266       .  A
O230       Al238   1.949   1_455  S
O231        C240   1.274       .  A
O231       Al238   1.964       .  S
O232       Al238   1.915   1_455  S
O233        C240   1.262       .  A
O234       Al238   1.777       .  S
O235        C236   1.253       .  A
C236       C1479   1.498       .  S
C237       C1176   1.488       .  S
C240       C1166   1.496       .  S
C241        O242   1.270       .  A
C241       C1556   1.495       .  S
O243        C258   1.255       .  A
O243       Al251   1.885       .  S
C244        O254   1.258       .  A
C244        O245   1.269       .  A
C244       C1159   1.504       .  S
O245       Al247   1.958       .  S
O246        C248   1.262       .  A
O246       Al247   1.876       .  S
Al247       O255   1.890       .  S
Al247       O257   1.942       .  S
Al247       O256   1.776       .  S
C248        O261   1.273       .  A
C248       C1136   1.496       .  S
O249        C259   1.256       .  A
O249       Al251   1.880       .  S
O250        C263   1.252       .  A
O250       Al260   1.850       .  S
Al251       O264   1.934       .  S
Al251       O261   1.959       .  S
Al251       O256   1.769       .  S
O252        C259   1.270       .  A
O252       Al260   1.961       .  S
O253        C262   1.276       .  A
O253       Al260   1.973       .  S
O254       Al260   1.878       .  S
O255        C262   1.261       .  A
O256       Al260   1.768       .  S
O257        C258   1.264       .  A
C258       C1286   1.495       .  S
C259       C1149   1.485       .  S
C262       C1169   1.501       .  S
C263        O264   1.268       .  A
C263       C1606   1.453       .  S
O265        C280   1.271       .  A
O265       Al273   1.945   1_545  S
C266        O276   1.266       .  A
C266        O267   1.257       .  A
C266       C1349   1.495       .  S
O267       Al269   1.884       .  S
O268        C270   1.268   1_545  A
O268       Al269   1.952   1_545  S
Al269       O277   1.967       .  S
Al269       O279   1.855   1_565  S
Al269       O278   1.766       .  S
C270        O283   1.254       .  A
C270       C1446   1.481   1_565  S
O271        C281   1.275       .  A
O271       Al273   1.957       .  S
O272        C285   1.264       .  A
O272       Al282   1.939       .  S
Al273       O286   1.896       .  S
Al273       O283   1.878       .  S
Al273       O278   1.768       .  S
O274        C281   1.263       .  A
O274       Al282   1.869       .  S
O275        C284   1.262       .  A
O275       Al282   1.881       .  S
O276       Al282   1.950       .  S
O277        C284   1.275       .  A
O278       Al282   1.776       .  S
O279        C280   1.252       .  A
C280       C1096   1.467       .  S
C281       C1106   1.482       .  S
C284       C1116   1.483       .  S
C285        O286   1.254       .  A
C285       C1126   1.508       .  S
O287        C302   1.266   1_565  A
O287       Al295   1.928       .  S
C288        O298   1.255       .  A
C288        O289   1.250       .  A
C288       C1299   1.499       .  S
O289       Al291   1.892       .  S
O290        C292   1.266       .  A
O290       Al291   1.933   1_545  S
Al291       O299   1.919       .  S
Al291       O301   1.862   1_565  S
Al291       O300   1.807       .  S
C292        O305   1.253   1_545  A
C292       C1656   1.495       .  S
O293        C303   1.268       .  A
O293       Al295   1.930       .  S
O294        C307   1.257       .  A
O294       Al304   1.905       .  S
Al295       O308   1.864       .  S
Al295       O305   1.883       .  S
Al295       O300   1.803       .  S
O296        C303   1.256       .  A
O296       Al304   1.869       .  S
O297        C306   1.258       .  A
O297       Al304   1.898       .  S
O298       Al304   1.891       .  S
O299        C306   1.263       .  A
O300       Al304   1.804       .  S
O301        C302   1.252       .  A
C302       C1076   1.468       .  S
C303       C1139   1.478       .  S
C306       C1119   1.485       .  S
C307        O308   1.251       .  A
C307       C1086   1.473       .  S
O309        C324   1.256       .  A
O309       Al317   1.903       .  S
C310        O320   1.258       .  A
C310        O311   1.269       .  A
C310       C1066   1.501       .  S
O311       Al313   1.958       .  S
O312        C314   1.262       .  A
O312       Al313   1.869       .  S
Al313       O321   1.893       .  S
Al313       O323   1.942       .  S
Al313       O322   1.778       .  S
C314        O327   1.274       .  A
C314       C1109   1.481       .  S
O315        C325   1.256       .  A
O315       Al317   1.888       .  S
O316        C329   1.254       .  A
O316       Al326   1.859       .  S
Al317       O330   1.938       .  S
Al317       O327   1.955       .  S
Al317       O322   1.772       .  S
O318        C325   1.268       .  A
O318       Al326   1.952       .  S
O319        C328   1.275       .  A
O319       Al326   1.969       .  S
O320       Al326   1.889       .  S
O321        C328   1.263       .  A
O322       Al326   1.770       .  S
O323        C324   1.264       .  A
C324       C1336   1.513       .  S
C325       C1056   1.488       .  S
C328       C1046   1.488       .  S
C329        O330   1.270       .  A
C329       C1399   1.465       .  S
O331        C346   1.260       .  A
O331       Al339   1.891       .  S
C332        O342   1.256       .  A
C332        O333   1.262       .  A
C332       C1039   1.475       .  S
O333       Al335   1.934       .  S
O334        C336   1.257       .  A
O334       Al335   1.873       .  S
Al335       O343   1.871       .  S
Al335       O345   1.908       .  S
Al335       O344   1.786       .  S
C336        O349   1.270       .  A
C336       C1236   1.499       .  S
O337        C347   1.263       .  A
O337       Al339   1.914       .  S
O338        C351   1.257       .  A
O338       Al348   1.853       .  S
Al339       O352   1.936       .  S
Al339       O349   1.949       .  S
Al339       O344   1.787       .  S
O340        C347   1.267       .  A
O340       Al348   1.935       .  S
O341        C350   1.273       .  A
O341       Al348   1.962       .  S
O342       Al348   1.881       .  S
O343        C350   1.255       .  A
O344       Al348   1.775       .  S
O345        C346   1.256       .  A
C346       C1536   1.495       .  S
C347       C1026   1.514   1_556  S
C350       C1049   1.504       .  S
C351        O352   1.266       .  A
C351       C1359   1.476       .  S
O353        C368   1.272       .  A
O353       Al361   1.956       .  S
C354        O364   1.268       .  A
C354        O355   1.260       .  A
C354       C1016   1.505       .  S
O355       Al357   1.896       .  S
O356        C358   1.261       .  A
O356       Al357   1.918       .  S
Al357       O365   1.942       .  S
Al357       O367   1.844       .  S
Al357       O366   1.766       .  S
C358        O371   1.261       .  A
C358       C1006   1.515       .  S
O359        C369   1.272       .  A
O359       Al361   1.939       .  S
O360        C373   1.265       .  A
O360       Al370   1.945       .  S
Al361       O374   1.901       .  S
Al361       O371   1.922       .  S
Al361       O366   1.778       .  S
O362        C369   1.256       .  A
O362       Al370   1.871       .  S
O363        C372   1.259       .  A
O363       Al370   1.883       .  S
O364       Al370   1.952       .  S
O365        C372   1.269       .  A
O366       Al370   1.777       .  S
O367        C368   1.256       .  A
C368       C1499   1.474       .  S
C369        C989   1.478       .  S
C372        C999   1.503       .  S
C373        O374   1.261       .  A
C373       C1369   1.515       .  S
O375        C390   1.269       .  A
O375       Al383   1.933       .  S
C376        O386   1.271       .  A
C376        O377   1.262       .  A
C376        C976   1.497       .  S
O377       Al379   1.894       .  S
O378        C380   1.266       .  A
O378       Al379   1.952       .  S
Al379       O387   1.958       .  S
Al379       O389   1.867       .  S
Al379       O388   1.779       .  S
C380        O393   1.254       .  A
C380        C966   1.486       .  S
O381        C391   1.272       .  A
O381       Al383   1.945       .  S
O382        C395   1.266       .  A
O382       Al392   1.951       .  S
Al383       O396   1.898       .  S
Al383       O393   1.886       .  S
Al383       O388   1.768       .  S
O384        C391   1.260       .  A
O384       Al392   1.876       .  S
O385        C394   1.262       .  A
O385       Al392   1.893       .  S
O386       Al392   1.958       .  S
O387        C394   1.272       .  A
O388       Al392   1.777       .  S
O389        C390   1.257       .  A
C390       C1456   1.464       .  S
C391        C956   1.476       .  S
C394        C996   1.481       .  S
C395        O396   1.255       .  A
C395       C1576   1.507       .  S
O397        C412   1.264       .  A
O397       Al405   1.903       .  S
C398        O408   1.259       .  A
C398        O399   1.272       .  A
C398       C1649   1.510       .  S
O399       Al401   1.958       .  S
O400        C402   1.256       .  A
O400       Al401   1.870       .  S
Al401       O409   1.890       .  S
Al401       O411   1.927       .  S
Al401       O410   1.770       .  S
C402        O415   1.263       .  A
C402        C926   1.488       .  S
O403        C413   1.259       .  A
O403       Al405   1.913       .  S
O404        C417   1.262       .  A
O404       Al414   1.869   1_565  S
Al405       O418   1.946       .  S
Al405       O415   1.919       .  S
Al405       O410   1.777       .  S
O406        C413   1.262   1_565  A
O406       Al414   1.933   1_565  S
O407        C416   1.266       .  A
O407       Al414   1.957       .  S
O408       Al414   1.880       .  S
O409        C416   1.256       .  A
O410       Al414   1.779       .  S
O411        C412   1.264       .  A
C412        C946   1.505       .  S
C413       C1279   1.518   1_545  S
C416        C936   1.500       .  S
C417        O418   1.271   1_565  A
C417        C916   1.470       .  S
O419        C434   1.258       .  A
O419       Al427   1.903       .  S
C420        O430   1.262       .  A
C420        O421   1.266       .  A
C420       C1589   1.493       .  S
O421       Al423   1.942       .  S
O422        C424   1.259       .  A
O422       Al423   1.880       .  S
Al423       O431   1.889       .  S
Al423       O433   1.928       .  S
Al423       O432   1.769       .  S
C424        O437   1.272       .  A
C424        C959   1.479       .  S
O425        C435   1.259       .  A
O425       Al427   1.905       .  S
O426        C439   1.261       .  A
O426       Al436   1.871   1_565  S
Al427       O440   1.950       .  S
Al427       O437   1.950       .  S
Al427       O432   1.769       .  S
O428        C435   1.269       .  A
O428       Al436   1.946       .  S
O429        C438   1.275       .  A
O429       Al436   1.978       .  S
O430       Al436   1.895       .  S
O431        C438   1.261       .  A
O432       Al436   1.767       .  S
O433        C434   1.262       .  A
C434        C906   1.504       .  S
C435       C1469   1.511   1_545  S
C438        C939   1.503       .  S
C439        O440   1.270   1_565  A
C439        C896   1.474       .  S
O441        C456   1.266       .  A
O441       Al449   1.934       .  S
C442        O452   1.269       .  A
C442        O443   1.256       .  A
C442        C889   1.505       .  S
O443       Al445   1.886   1_655  S
O444        C446   1.260       .  A
O444       Al445   1.923   1_655  S
Al445       O453   1.942       .  S
Al445       O455   1.856       .  S
Al445       O454   1.779       .  S
C446        O459   1.258   1_655  A
C446        C879   1.487       .  S
O447        C457   1.266       .  A
O447       Al449   1.916       .  S
O448        C461   1.259       .  A
O448       Al458   1.915       .  S
Al449       O462   1.917       .  S
Al449       O459   1.899       .  S
Al449       O454   1.781       .  S
O450        C457   1.264       .  A
O450       Al458   1.877       .  S
O451        C460   1.259       .  A
O451       Al458   1.893       .  S
O452       Al458   1.953   1_655  S
O453        C460   1.267       .  A
O454       Al458   1.780       .  S
O455        C456   1.256       .  A
C456       C1306   1.498       .  S
C457        C859   1.479       .  S
C460        C869   1.479       .  S
C461        O462   1.264       .  A
C461       C1426   1.508       .  S
O463        C478   1.266       .  A
O463       Al471   1.917       .  S
C464        O474   1.255       .  A
C464        O465   1.254       .  A
C464        C846   1.508       .  S
O465       Al467   1.907       .  S
O466        C468   1.258       .  A
O466       Al467   1.906       .  S
Al467       O475   1.901       .  S
Al467       O477   1.887       .  S
Al467       O476   1.803       .  S
C468        O481   1.256       .  A
C468        C839   1.477       .  S
O469        C479   1.268       .  A
O469       Al471   1.923       .  S
O470        C483   1.257       .  A
O470       Al480   1.911       .  S
Al471       O484   1.891       .  S
Al471       O481   1.906       .  S
Al471       O476   1.806       .  S
O472        C479   1.257       .  A
O472       Al480   1.862       .  S
O473        C482   1.256       .  A
O473       Al480   1.889       .  S
O474       Al480   1.889       .  S
O475        C482   1.258       .  A
O476       Al480   1.794       .  S
O477        C478   1.261       .  A
C478       C1269   1.477       .  S
C479        C929   1.471       .  S
C482        C866   1.475       .  S
C483        O484   1.253       .  A
C483       C1639   1.480       .  S
O485        C500   1.266       .  A
O485       Al493   1.921       .  S
C486        O496   1.261       .  A
C486        O487   1.263       .  A
C486       C1436   1.498       .  S
O487       Al489   1.934   1_455  S
O488        C490   1.264       .  A
O488       Al489   1.884       .  S
Al489       O497   1.883       .  S
Al489       O499   1.899       .  S
Al489       O498   1.776       .  S
C490        O503   1.265       .  A
C490        C856   1.479       .  S
O491        C501   1.257   1_655  A
O491       Al493   1.888       .  S
O492        C505   1.257       .  A
O492       Al502   1.885   1_565  S
Al493       O506   1.938   1_545  S
Al493       O503   1.917       .  S
Al493       O498   1.780       .  S
O494        C501   1.263   1_565  A
O494       Al502   1.930   1_465  S
O495        C504   1.266       .  A
O495       Al502   1.937       .  S
O496       Al502   1.898   1_455  S
O497        C504   1.259       .  A
O498       Al502   1.775       .  S
O499        C500   1.256       .  A
C500        C826   1.501       .  S
C501       C1326   1.484   1_545  S
C504        C816   1.475       .  S
C505        O506   1.269       .  A
C505        C809   1.500       .  S
O507        C522   1.261       .  A
O507       Al515   1.911       .  S
C508        O518   1.262       .  A
C508        O509   1.267       .  A
C508       C1379   1.493       .  S
O509       Al511   1.951       .  S
O510        C512   1.262       .  A
O510       Al511   1.885       .  S
Al511       O519   1.887       .  S
Al511       O521   1.941       .  S
Al511       O520   1.770       .  S
C512        O525   1.270       .  A
C512        C986   1.478       .  S
O513        C523   1.259       .  A
O513       Al515   1.895       .  S
O514        C527   1.254       .  A
O514       Al524   1.864   1_565  S
Al515       O528   1.938   1_545  S
Al515       O525   1.933       .  S
Al515       O520   1.768       .  S
O516        C523   1.266   1_565  A
O516       Al524   1.948   1_565  S
O517        C526   1.269       .  A
O517       Al524   1.937       .  S
O518       Al524   1.886       .  S
O519        C526   1.262       .  A
O520       Al524   1.767       .  S
O521        C522   1.266       .  A
C522        C796   1.508       .  S
C523       C1529   1.490   1_545  S
C526        C819   1.485       .  S
C527        O528   1.270       .  A
C527        C789   1.477       .  S
O529        C544   1.256       .  A
O529       Al537   1.893       .  S
C530        O540   1.258       .  A
C530        O531   1.273       .  A
C530       C1036   1.476       .  S
O531       Al533   1.959   1_455  S
O532        C534   1.254       .  A
O532       Al533   1.869       .  S
Al533       O541   1.896       .  S
Al533       O543   1.960       .  S
Al533       O542   1.775       .  S
C534        O547   1.268       .  A
C534        C766   1.494       .  S
O535        C545   1.260       .  A
O535       Al537   1.905   1_455  S
O536        C549   1.262       .  A
O536       Al546   1.871       .  S
Al537       O550   1.927       .  S
Al537       O547   1.938       .  S
Al537       O542   1.768       .  S
O538        C545   1.267       .  A
O538       Al546   1.945   1_455  S
O539        C548   1.269       .  A
O539       Al546   1.957       .  S
O540       Al546   1.869   1_455  S
O541        C548   1.261       .  A
O542       Al546   1.776       .  S
O543        C544   1.270       .  A
C544       C1009   1.504       .  S
C545       C1259   1.518       .  S
C548        C776   1.500       .  S
C549        O550   1.267       .  A
C549        C786   1.464       .  S
O551        C566   1.263       .  A
O551       Al559   1.907       .  S
C552        O562   1.254       .  A
C552        O553   1.266       .  A
C552       C1069   1.510       .  S
O553       Al555   1.950       .  S
O554        C556   1.261       .  A
O554       Al555   1.869       .  S
Al555       O563   1.886       .  S
Al555       O565   1.916       .  S
Al555       O564   1.777       .  S
C556        O569   1.267       .  A
C556        C756   1.478       .  S
O557        C567   1.256       .  A
O557       Al559   1.889       .  S
O558        C571   1.261       .  A
O558       Al568   1.873       .  S
Al559       O572   1.934       .  S
Al559       O569   1.922       .  S
Al559       O564   1.785       .  S
O560        C567   1.261       .  A
O560       Al568   1.914       .  S
O561        C570   1.272       .  A
O561       Al568   1.967       .  S
O562       Al568   1.888       .  S
O563        C570   1.258       .  A
O564       Al568   1.773       .  S
O565        C566   1.258       .  A
C566        C876   1.503       .  S
C567       C1129   1.502       .  S
C570        C779   1.508       .  S
C571        O572   1.266       .  A
C571        C806   1.477       .  S
O573        C588   1.264       .  A
O573       Al581   1.906       .  S
C574        O584   1.262       .  A
C574        O575   1.257       .  A
C574       C1019   1.511       .  S
O575       Al577   1.905   1_655  S
O576        C578   1.261       .  A
O576       Al577   1.928   1_655  S
Al577       O585   1.918       .  S
Al577       O587   1.903       .  S
Al577       O586   1.796       .  S
C578        O591   1.256   1_655  A
C578        C799   1.503       .  S
O579        C589   1.267       .  A
O579       Al581   1.917       .  S
O580        C593   1.268       .  A
O580       Al590   1.943       .  S
Al581       O594   1.883       .  S
Al581       O591   1.901       .  S
Al581       O586   1.795       .  S
O582        C589   1.259       .  A
O582       Al590   1.879       .  S
O583        C592   1.261       .  A
O583       Al590   1.904       .  S
O584       Al590   1.915   1_655  S
O585        C592   1.261       .  A
O586       Al590   1.794       .  S
O587        C588   1.263       .  A
C588       C1226   1.469       .  S
C589        C769   1.469       .  S
C592        C749   1.496       .  S
C593        O594   1.254       .  A
C593       C1029   1.499       .  S
O595        C610   1.264       .  A
O595       Al603   1.922       .  S
C596        O606   1.257       .  A
C596        O597   1.257       .  A
C596        C979   1.504       .  S
O597       Al599   1.917       .  S
O598        C600   1.263       .  A
O598       Al599   1.912       .  S
Al599       O607   1.909       .  S
Al599       O609   1.882       .  S
Al599       O608   1.798       .  S
C600        O613   1.259       .  A
C600        C909   1.490       .  S
O601        C611   1.269       .  A
O601       Al603   1.932       .  S
O602        C615   1.262       .  A
O602       Al612   1.912       .  S
Al603       O616   1.882       .  S
Al603       O613   1.904       .  S
Al603       O608   1.800       .  S
O604        C611   1.254       .  A
O604       Al612   1.864       .  S
O605        C614   1.262       .  A
O605       Al612   1.919       .  S
O606       Al612   1.901       .  S
O607        C614   1.260       .  A
O608       Al612   1.796       .  S
O609        C610   1.256       .  A
C610       C1199   1.471       .  S
C611        C736   1.478       .  S
C614        C746   1.497       .  S
C615        O616   1.255       .  A
C615       C1179   1.477       .  S
O617        C632   1.265       .  A
O617       Al625   1.920       .  S
C618        O628   1.262       .  A
C618        O619   1.263       .  A
C618       C1189   1.510       .  S
O619       Al621   1.934       .  S
O620        C622   1.266       .  A
O620       Al621   1.888       .  S
Al621       O629   1.897       .  S
Al621       O631   1.903       .  S
Al621       O630   1.779       .  S
C622        O635   1.269       .  A
C622        C739   1.494       .  S
O623        C633   1.257       .  A
O623       Al625   1.887       .  S
O624        C637   1.258       .  A
O624       Al634   1.881       .  S
Al625       O638   1.947       .  S
Al625       O635   1.932       .  S
Al625       O630   1.780       .  S
O626        C633   1.262       .  A
O626       Al634   1.932       .  S
O627        C636   1.268       .  A
O627       Al634   1.940       .  S
O628       Al634   1.913       .  S
O629        C636   1.263       .  A
O630       Al634   1.777       .  S
O631        C632   1.255       .  A
C632        C969   1.499       .  S
C633       C1219   1.485       .  S
C636        C726   1.486       .  S
C637        O638   1.272       .  A
C637        C899   1.495       .  S
O639        C654   1.266       .  A
O639       Al647   1.919       .  S
C640        O650   1.260       .  A
C640        O641   1.264       .  A
C640       C1156   1.503       .  S
O641       Al643   1.943       .  S
O642        C644   1.263       .  A
O642       Al643   1.875       .  S
Al643       O651   1.877       .  S
Al643       O653   1.905       .  S
Al643       O652   1.773       .  S
C644        O657   1.267       .  A
C644        C716   1.483       .  S
O645        C655   1.256       .  A
O645       Al647   1.890       .  S
O646        C659   1.256       .  A
O646       Al656   1.877       .  S
Al647       O660   1.949       .  S
Al647       O657   1.930       .  S
Al647       O652   1.780       .  S
O648        C655   1.266       .  A
O648       Al656   1.943       .  S
O649        C658   1.270       .  A
O649       Al656   1.954       .  S
O650       Al656   1.895       .  S
O651        C658   1.258       .  A
O652       Al656   1.774       .  S
O653        C654   1.257       .  A
C654        C836   1.507       .  S
C655       C1089   1.485       .  S
C658        C729   1.484       .  S
C659        O660   1.272       .  A
C659        C919   1.493       .  S
O661        C676   1.271       .  A
O661       Al669   1.943       .  S
C662        O672   1.263       .  A
C662        O663   1.254       .  A
C662        C886   1.505       .  S
O663       Al665   1.895       .  S
O664        C666   1.265       .  A
O664       Al665   1.942       .  S
Al665       O673   1.970       .  S
Al665       O675   1.848       .  S
Al665       O674   1.775       .  S
C666        O679   1.254       .  A
C666        C829   1.484       .  S
O667        C677   1.269       .  A
O667       Al669   1.935       .  S
O668        C681   1.255       .  A
O668       Al678   1.903       .  S
Al669       O682   1.915       .  S
Al669       O679   1.884       .  S
Al669       O674   1.787       .  S
O670        C677   1.266       .  A
O670       Al678   1.865       .  S
O671        C680   1.260       .  A
O671       Al678   1.874       .  S
O672       Al678   1.945       .  S
O673        C680   1.276       .  A
O674       Al678   1.778       .  S
O675        C676   1.251       .  A
C676       C1099   1.463       .  S
C677        C759   1.479       .  S
C680        C706   1.498       .  S
C681        O682   1.263       .  A
C681       C1059   1.507       .  S
O683        C698   1.270       .  A
O683       Al691   1.942       .  S
C684        O694   1.263       .  A
C684        O685   1.260       .  A
C684        C849   1.502       .  S
O685       Al687   1.899       .  S
O686        C688   1.265       .  A
O686       Al687   1.942       .  S
Al687       O695   1.953       .  S
Al687       O697   1.879       .  S
Al687       O696   1.771       .  S
C688        O701   1.259       .  A
C688        C949   1.497       .  S
O689        C699   1.266       .  A
O689       Al691   1.922       .  S
O690        C703   1.253       .  A
O690       Al700   1.885       .  S
Al691       O704   1.926       .  S
Al691       O701   1.898       .  S
Al691       O696   1.784       .  S
O692        C699   1.265       .  A
O692       Al700   1.884       .  S
O693        C702   1.259       .  A
O693       Al700   1.891       .  S
O694       Al700   1.936       .  S
O695        C702   1.269       .  A
O696       Al700   1.777       .  S
O697        C698   1.256       .  A
C698       C1079   1.499       .  S
C699        C719   1.482       .  S
C702        C709   1.485       .  S
C703        O704   1.267       .  A
C703       C1146   1.499       .  S
C705        C706   1.415       .  A
C705        C710   1.415       .  A
C705       Br712   1.930       .  S
C706        C707   1.422       .  A
C707        C708   1.412       .  A
C707       Br714   1.933       .  S
C708        C709   1.406       .  A
C708       Br713   1.932       .  S
C709        C710   1.412       .  A
C710       Br711   1.932       .  S
C715        C716   1.416       .  A
C715        C720   1.405       .  A
C715       Br722   1.932       .  S
C716        C717   1.412       .  A
C717        C718   1.405       .  A
C717       Br724   1.932       .  S
C718        C719   1.415       .  A
C718       Br723   1.935       .  S
C719        C720   1.408       .  A
C720       Br721   1.931       .  S
C725        C726   1.414       .  A
C725        C730   1.412       .  A
C725       Br732   1.931       .  S
C726        C727   1.411       .  A
C727        C728   1.410       .  A
C727       Br734   1.931       .  S
C728        C729   1.414       .  A
C728       Br733   1.934       .  S
C729        C730   1.410       .  A
C730       Br731   1.930       .  S
C735        C736   1.410       .  A
C735        C740   1.408       .  A
C735       Br742   1.930       .  S
C736        C737   1.412       .  A
C737        C738   1.410       .  A
C737       Br744   1.933       .  S
C738        C739   1.421       .  A
C738       Br743   1.937       .  S
C739        C740   1.414       .  A
C740       Br741   1.930       .  S
C745        C746   1.415       .  A
C745        C750   1.410       .  A
C745       Br752   1.927       .  S
C746        C747   1.415       .  A
C747        C748   1.416       .  A
C747       Br754   1.932       .  S
C748        C749   1.414       .  A
C748       Br753   1.921       .  S
C749        C750   1.411       .  A
C750       Br751   1.935       .  S
C755        C756   1.414       .  A
C755        C760   1.407       .  A
C755       Br762   1.934       .  S
C756        C757   1.415       .  A
C757        C758   1.399       .  A
C757       Br764   1.935       .  S
C758        C759   1.406       .  A
C758       Br763   1.931       .  S
C759        C760   1.415       .  A
C760       Br761   1.933       .  S
C765        C766   1.425   1_455  A
C765        C770   1.408       .  A
C765       Br772   1.933       .  S
C766        C767   1.416   1_556  A
C767        C768   1.402       .  A
C767       Br774   1.929       .  S
C768        C769   1.404   1_655  A
C768       Br773   1.927       .  S
C769        C770   1.406   1_554  A
C770       Br771   1.934       .  S
C775        C776   1.415       .  A
C775        C780   1.418       .  A
C775       Br782   1.931       .  S
C776        C777   1.413       .  A
C777        C778   1.411       .  A
C777       Br784   1.938       .  S
C778        C779   1.424       .  A
C778       Br783   1.939       .  S
C779        C780   1.421       .  A
C780       Br781   1.933       .  S
C785        C786   1.402       .  A
C785        C790   1.401       .  A
C785       Br792   1.937       .  S
C786        C787   1.411       .  A
C787        C788   1.402       .  A
C787       Br794   1.927       .  S
C788        C789   1.410       .  A
C788       Br793   1.935       .  S
C789        C790   1.424       .  A
C790       Br791   1.938       .  S
C795        C796   1.425   1_554  A
C795        C800   1.417       .  A
C795       Br802   1.933       .  S
C796        C797   1.415       .  A
C797        C798   1.413       .  A
C797       Br804   1.934       .  S
C798        C799   1.417   1_556  A
C798       Br803   1.933       .  S
C799        C800   1.416       .  A
C800       Br801   1.937       .  S
C805        C806   1.409       .  A
C805        C810   1.413       .  A
C805       Br812   1.931       .  S
C806        C807   1.398       .  A
C807        C808   1.404       .  A
C807       Br814   1.935       .  S
C808        C809   1.430       .  A
C808       Br813   1.937       .  S
C809        C810   1.423       .  A
C810       Br811   1.936       .  S
C815        C816   1.409       .  A
C815        C820   1.408       .  A
C815       Br822   1.933       .  S
C816        C817   1.407       .  A
C817        C818   1.409       .  A
C817       Br824   1.931       .  S
C818        C819   1.417       .  A
C818       Br823   1.934       .  S
C819        C820   1.415       .  A
C820       Br821   1.932       .  S
C825        C826   1.414       .  A
C825        C830   1.412       .  A
C825       Br832   1.930       .  S
C826        C827   1.430       .  A
C827        C828   1.411       .  A
C827       Br834   1.937       .  S
C828        C829   1.402       .  A
C828       Br833   1.932       .  S
C829        C830   1.410       .  A
C830       Br831   1.923       .  S
C835        C836   1.417       .  A
C835        C840   1.411       .  A
C835       Br842   1.925       .  S
C836        C837   1.431       .  A
C837        C838   1.411       .  A
C837       Br844   1.937       .  S
C838        C839   1.402       .  A
C838       Br843   1.934       .  S
C839        C840   1.407       .  A
C840       Br841   1.931       .  S
C845        C846   1.424       .  A
C845        C850   1.416       .  A
C845       Br852   1.938       .  S
C846        C847   1.420       .  A
C847        C848   1.410       .  A
C847       Br854   1.938       .  S
C848        C849   1.414       .  A
C848       Br853   1.936       .  S
C849        C850   1.419       .  A
C850       Br851   1.939       .  S
C855        C856   1.408   1_455  A
C855        C860   1.403       .  A
C855       Br862   1.932       .  S
C856        C857   1.416       .  A
C857        C858   1.404       .  A
C857       Br864   1.934       .  S
C858        C859   1.410   1_655  A
C858       Br863   1.930       .  S
C859        C860   1.416       .  A
C860       Br861   1.934       .  S
C865        C866   1.407       .  A
C865        C870   1.411       .  A
C865       Br872   1.929       .  S
C866        C867   1.410       .  A
C867        C868   1.408       .  A
C867       Br874   1.930       .  S
C868        C869   1.409       .  A
C868       Br873   1.929       .  S
C869        C870   1.414       .  A
C870       Br871   1.930       .  S
C875        C876   1.428       .  A
C875        C880   1.415       .  A
C875       Br882   1.935       .  S
C876        C877   1.413       .  A
C877        C878   1.410       .  A
C877       Br884   1.934       .  S
C878        C879   1.411       .  A
C878       Br883   1.924   1_655  S
C879        C880   1.407       .  A
C880       Br881   1.935       .  S
C885        C886   1.423       .  A
C885        C890   1.415       .  A
C885       Br892   1.937       .  S
C886        C887   1.419       .  A
C887        C888   1.413       .  A
C887       Br894   1.938       .  S
C888        C889   1.419       .  A
C888       Br893   1.937       .  S
C889        C890   1.416       .  A
C890       Br891   1.938       .  S
C895        C896   1.409       .  A
C895        C900   1.411       .  A
C895       Br902   1.927       .  S
C896        C897   1.401       .  A
C897        C898   1.405       .  A
C897       Br904   1.938       .  S
C898        C899   1.427       .  A
C898       Br903   1.937       .  S
C899        C900   1.416       .  A
C900       Br901   1.931       .  S
C905        C906   1.425       .  A
C905        C910   1.412       .  A
C905       Br912   1.939       .  S
C906        C907   1.421       .  A
C907        C908   1.411       .  A
C907       Br914   1.937       .  S
C908        C909   1.412       .  A
C908       Br913   1.935       .  S
C909        C910   1.413       .  A
C910       Br911   1.936       .  S
C915        C916   1.401       .  A
C915        C920   1.405       .  A
C915       Br922   1.937       .  S
C916        C917   1.408       .  A
C917        C918   1.407       .  A
C917       Br924   1.927       .  S
C918        C919   1.416       .  A
C918       Br923   1.927       .  S
C919        C920   1.429       .  A
C920       Br921   1.937       .  S
C925        C926   1.421       .  A
C925        C930   1.404       .  A
C925       Br932   1.938       .  S
C926        C927   1.420       .  A
C927        C928   1.408       .  A
C927       Br934   1.932       .  S
C928        C929   1.407       .  A
C928       Br933   1.931       .  S
C929        C930   1.406       .  A
C930       Br931   1.932       .  S
C935        C936   1.418       .  A
C935        C940   1.421       .  A
C935       Br942   1.930   1_545  S
C936        C937   1.414       .  A
C937        C938   1.407       .  A
C937       Br944   1.937       .  S
C938        C939   1.417       .  A
C938       Br943   1.936       .  S
C939        C940   1.418       .  A
C940       Br941   1.930   1_545  S
C945        C946   1.414       .  A
C945        C950   1.413       .  A
C945       Br952   1.936       .  S
C946        C947   1.426       .  A
C947        C948   1.416       .  A
C947       Br954   1.934       .  S
C948        C949   1.411       .  A
C948       Br953   1.936       .  S
C949        C950   1.414       .  A
C950       Br951   1.924       .  S
C955        C956   1.404       .  A
C955        C960   1.405       .  A
C955       Br962   1.932       .  S
C956        C957   1.418       .  A
C957        C958   1.406       .  A
C957       Br964   1.931       .  S
C958        C959   1.406       .  A
C958       Br963   1.932       .  S
C959        C960   1.419       .  A
C960       Br961   1.928       .  S
C965        C966   1.403       .  A
C965        C970   1.412       .  A
C965       Br972   1.930       .  S
C966        C967   1.413       .  A
C967        C968   1.411       .  A
C967       Br974   1.922       .  S
C968        C969   1.409       .  A
C968       Br973   1.927       .  S
C969        C970   1.427       .  A
C970       Br971   1.932       .  S
C975        C976   1.415       .  A
C975        C980   1.415       .  A
C975       Br982   1.933       .  S
C976        C977   1.413       .  A
C977        C978   1.412       .  A
C977       Br984   1.932       .  S
C978        C979   1.416       .  A
C978       Br983   1.933       .  S
C979        C980   1.423       .  A
C980       Br981   1.934       .  S
C985        C986   1.409   1_554  A
C985        C990   1.405       .  A
C985       Br992   1.938       .  S
C986        C987   1.421       .  A
C987        C988   1.403       .  A
C987       Br994   1.932       .  S
C988        C989   1.403   1_556  A
C988       Br993   1.935       .  S
C989        C990   1.420       .  A
C990       Br991   1.931       .  S
C995        C996   1.405       .  A
C995       C1000   1.411       .  A
C995      Br1002   1.923       .  S
C996        C997   1.403       .  A
C997        C998   1.411       .  A
C997      Br1004   1.931       .  S
C998        C999   1.426       .  A
C998      Br1003   1.937       .  S
C999       C1000   1.422       .  A
C1000     Br1001   1.935       .  S
C1005      C1006   1.423       .  A
C1005      C1010   1.409       .  A
C1005     Br1012   1.941       .  S
C1006      C1007   1.428   1_554  A
C1007      C1008   1.421       .  A
C1007     Br1014   1.932       .  S
C1008      C1009   1.410       .  A
C1008     Br1013   1.934       .  S
C1009      C1010   1.419   1_556  A
C1010     Br1011   1.940       .  S
C1015      C1016   1.414       .  A
C1015      C1020   1.415       .  A
C1015     Br1022   1.932       .  S
C1016      C1017   1.414       .  A
C1017      C1018   1.414       .  A
C1017     Br1024   1.932       .  S
C1018      C1019   1.418       .  A
C1018     Br1023   1.934       .  S
C1019      C1020   1.426       .  A
C1020     Br1021   1.937       .  S
C1025      C1026   1.423   1_556  A
C1025      C1030   1.413   1_556  A
C1025     Br1032   1.938       .  S
C1026      C1027   1.424       .  A
C1027      C1028   1.420       .  A
C1027     Br1034   1.928       .  S
C1028      C1029   1.413       .  A
C1028     Br1033   1.932       .  S
C1029      C1030   1.412       .  A
C1030     Br1031   1.933       .  S
C1035      C1036   1.408       .  A
C1035      C1040   1.395       .  A
C1035     Br1042   1.930       .  S
C1036      C1037   1.411       .  A
C1037      C1038   1.418       .  A
C1037     Br1044   1.924       .  S
C1038      C1039   1.410       .  A
C1038     Br1043   1.924       .  S
C1039      C1040   1.405       .  A
C1040     Br1041   1.923       .  S
C1045      C1046   1.409       .  A
C1045      C1050   1.414       .  A
C1045     Br1052   1.923       .  S
C1046      C1047   1.405       .  A
C1047      C1048   1.414       .  A
C1047     Br1054   1.932       .  S
C1048      C1049   1.427       .  A
C1048     Br1053   1.937       .  S
C1049      C1050   1.417       .  A
C1050     Br1051   1.932       .  S
C1055      C1056   1.408       .  A
C1055      C1060   1.411       .  A
C1055     Br1062   1.922       .  S
C1056      C1057   1.401       .  A
C1057      C1058   1.413       .  A
C1057     Br1064   1.931       .  S
C1058      C1059   1.433       .  A
C1058     Br1063   1.937       .  S
C1059      C1060   1.417       .  A
C1060     Br1061   1.928       .  S
C1065      C1066   1.417       .  A
C1065      C1070   1.413       .  A
C1065     Br1072   1.936       .  S
C1066      C1067   1.415       .  A
C1067      C1068   1.415       .  A
C1067     Br1074   1.937       .  S
C1068      C1069   1.424       .  A
C1068     Br1073   1.937       .  S
C1069      C1070   1.419       .  A
C1070     Br1071   1.936       .  S
C1075      C1076   1.405       .  A
C1075      C1080   1.411       .  A
C1075     Br1082   1.930       .  S
C1076      C1077   1.402       .  A
C1077      C1078   1.405       .  A
C1077     Br1084   1.930       .  S
C1078      C1079   1.430       .  A
C1078     Br1083   1.942       .  S
C1079      C1080   1.421       .  A
C1080     Br1081   1.933       .  S
C1085      C1086   1.403       .  A
C1085      C1090   1.403       .  A
C1085     Br1092   1.936       .  S
C1086      C1087   1.415       .  A
C1087      C1088   1.413       .  A
C1087     Br1094   1.930       .  S
C1088      C1089   1.412       .  A
C1088     Br1093   1.932       .  S
C1089      C1090   1.413       .  A
C1090     Br1091   1.913       .  S
C1095      C1096   1.402       .  A
C1095      C1100   1.399       .  A
C1095     Br1102   1.922       .  S
C1096      C1097   1.418       .  A
C1097      C1098   1.403       .  A
C1097     Br1104   1.934       .  S
C1098      C1099   1.400       .  A
C1098     Br1103   1.923       .  S
C1099      C1100   1.413       .  A
C1100     Br1101   1.934       .  S
C1105      C1106   1.413       .  A
C1105      C1110   1.406       .  A
C1105     Br1112   1.926       .  S
C1106      C1107   1.413       .  A
C1107      C1108   1.406       .  A
C1107     Br1114   1.936       .  S
C1108      C1109   1.412       .  A
C1108     Br1113   1.923       .  S
C1109      C1110   1.410       .  A
C1110     Br1111   1.933       .  S
C1115      C1116   1.408       .  A
C1115      C1120   1.414       .  A
C1115     Br1122   1.930       .  S
C1116      C1117   1.411       .  A
C1117      C1118   1.409       .  A
C1117     Br1124   1.923       .  S
C1118      C1119   1.407       .  A
C1118     Br1123   1.929       .  S
C1119      C1120   1.417       .  A
C1120     Br1121   1.928       .  S
C1125      C1126   1.418       .  A
C1125      C1130   1.414       .  A
C1125     Br1132   1.937       .  S
C1126      C1127   1.424       .  A
C1127      C1128   1.411       .  A
C1127     Br1134   1.935       .  S
C1128      C1129   1.421       .  A
C1128     Br1133   1.946       .  S
C1129      C1130   1.421       .  A
C1130     Br1131   1.938       .  S
C1135      C1136   1.417       .  A
C1135      C1140   1.411       .  A
C1135     Br1142   1.925       .  S
C1136      C1137   1.416       .  A
C1137      C1138   1.408       .  A
C1137     Br1144   1.932       .  S
C1138      C1139   1.410       .  A
C1138     Br1143   1.931       .  S
C1139      C1140   1.410       .  A
C1140     Br1141   1.933       .  S
C1145      C1146   1.412       .  A
C1145      C1150   1.410       .  A
C1145     Br1152   1.931       .  S
C1146      C1147   1.432       .  A
C1147      C1148   1.411       .  A
C1147     Br1154   1.937       .  S
C1148      C1149   1.402       .  A
C1148     Br1153   1.934       .  S
C1149      C1150   1.410       .  A
C1150     Br1151   1.921       .  S
C1155      C1156   1.419       .  A
C1155      C1160   1.412       .  A
C1155     Br1162   1.939       .  S
C1156      C1157   1.418       .  A
C1157      C1158   1.414       .  A
C1157     Br1164   1.936       .  S
C1158      C1159   1.418       .  A
C1158     Br1163   1.936       .  S
C1159      C1160   1.421       .  A
C1160     Br1161   1.940       .  S
C1165      C1166   1.416       .  A
C1165      C1170   1.417       .  A
C1165     Br1172   1.932       .  S
C1166      C1167   1.410       .  A
C1167      C1168   1.415       .  A
C1167     Br1174   1.932       .  S
C1168      C1169   1.419       .  A
C1168     Br1173   1.929       .  S
C1169      C1170   1.413       .  A
C1170     Br1171   1.930       .  S
C1175      C1176   1.411       .  A
C1175      C1180   1.412       .  A
C1175     Br1182   1.931       .  S
C1176      C1177   1.414       .  A
C1177      C1178   1.408       .  A
C1177     Br1184   1.915   1_455  S
C1178      C1179   1.403       .  A
C1178     Br1183   1.932       .  S
C1179      C1180   1.413       .  A
C1180     Br1181   1.927       .  S
C1185      C1186   1.422       .  A
C1185      C1190   1.416       .  A
C1185     Br1192   1.938       .  S
C1186      C1187   1.416       .  A
C1187      C1188   1.414       .  A
C1187     Br1194   1.936       .  S
C1188      C1189   1.422       .  A
C1188     Br1193   1.938       .  S
C1189      C1190   1.419       .  A
C1190     Br1191   1.937       .  S
C1195      C1196   1.433       .  A
C1195      C1200   1.406       .  A
C1195     Br1202   1.939       .  S
C1196      C1197   1.422       .  A
C1197      C1198   1.415       .  A
C1197     Br1204   1.931       .  S
C1198      C1199   1.406       .  A
C1198     Br1203   1.930       .  S
C1199      C1200   1.398       .  A
C1200     Br1201   1.937       .  S
C1205      C1206   1.422   1_655  A
C1205      C1210   1.412       .  A
C1205     Br1212   1.940       .  S
C1206      C1207   1.421       .  A
C1207      C1208   1.406       .  A
C1207     Br1214   1.935       .  S
C1208      C1209   1.407   1_455  A
C1208     Br1213   1.932       .  S
C1209      C1210   1.420       .  A
C1210     Br1211   1.940       .  S
C1215      C1216   1.428       .  A
C1215      C1220   1.411       .  A
C1215     Br1222   1.935       .  S
C1216      C1217   1.415       .  A
C1217      C1218   1.411       .  A
C1217     Br1224   1.936       .  S
C1218      C1219   1.412       .  A
C1218     Br1223   1.923       .  S
C1219      C1220   1.406       .  A
C1220     Br1221   1.938       .  S
C1225      C1226   1.408       .  A
C1225      C1230   1.404       .  A
C1225     Br1232   1.923       .  S
C1226      C1227   1.401       .  A
C1227      C1228   1.406       .  A
C1227     Br1234   1.930       .  S
C1228      C1229   1.422       .  A
C1228     Br1233   1.935       .  S
C1229      C1230   1.409       .  A
C1230     Br1231   1.932       .  S
C1235      C1236   1.430       .  A
C1235      C1240   1.412       .  A
C1235     Br1242   1.940       .  S
C1236      C1237   1.415   1_556  A
C1237      C1238   1.404       .  A
C1237     Br1244   1.938       .  S
C1238      C1239   1.418       .  A
C1238     Br1243   1.934       .  S
C1239      C1240   1.411   1_554  A
C1240     Br1241   1.938       .  S
C1245      C1246   1.412       .  A
C1245      C1250   1.414       .  A
C1245     Br1252   1.931       .  S
C1246      C1247   1.412       .  A
C1247      C1248   1.412       .  A
C1247     Br1254   1.932       .  S
C1248      C1249   1.412       .  A
C1248     Br1253   1.930       .  S
C1249      C1250   1.415       .  A
C1250     Br1251   1.933       .  S
C1255      C1256   1.409       .  A
C1255      C1260   1.419       .  A
C1255     Br1262   1.934       .  S
C1256      C1257   1.423   1_554  A
C1257      C1258   1.415       .  A
C1257     Br1264   1.934       .  S
C1258      C1259   1.423       .  A
C1258     Br1263   1.946       .  S
C1259      C1260   1.430   1_556  A
C1260     Br1261   1.936       .  S
C1265      C1266   1.424       .  A
C1265      C1270   1.413       .  A
C1265     Br1272   1.935       .  S
C1266      C1267   1.417       .  A
C1267      C1268   1.396       .  A
C1267     Br1274   1.941       .  S
C1268      C1269   1.406       .  A
C1268     Br1273   1.926       .  S
C1269      C1270   1.409       .  A
C1270     Br1271   1.931       .  S
C1275      C1276   1.412       .  A
C1275      C1280   1.416       .  A
C1275     Br1282   1.938       .  S
C1276      C1277   1.421       .  A
C1277      C1278   1.414       .  A
C1277     Br1284   1.942       .  S
C1278      C1279   1.427       .  A
C1278     Br1283   1.942       .  S
C1279      C1280   1.428       .  A
C1280     Br1281   1.937   1_565  S
C1285      C1286   1.406       .  A
C1285      C1290   1.413       .  A
C1285     Br1292   1.936       .  S
C1286      C1287   1.413       .  A
C1287      C1288   1.411       .  A
C1287     Br1294   1.942       .  S
C1288      C1289   1.433       .  A
C1288     Br1293   1.944       .  S
C1289      C1290   1.428       .  A
C1290     Br1291   1.930       .  S
C1295      C1296   1.414       .  A
C1295      C1300   1.413       .  A
C1295     Br1302   1.934       .  S
C1296      C1297   1.411       .  A
C1297      C1298   1.406       .  A
C1297     Br1304   1.934       .  S
C1298      C1299   1.417       .  A
C1298     Br1303   1.935       .  S
C1299      C1300   1.425       .  A
C1300     Br1301   1.938   1_565  S
C1305      C1306   1.427       .  A
C1305      C1310   1.413       .  A
C1305     Br1312   1.937       .  S
C1306      C1307   1.424       .  A
C1307      C1308   1.398       .  A
C1307     Br1314   1.946       .  S
C1308      C1309   1.407       .  A
C1308     Br1313   1.934       .  S
C1309      C1310   1.411       .  A
C1310     Br1311   1.935       .  S
C1315      C1316   1.418       .  A
C1315      C1320   1.412       .  A
C1315     Br1322   1.936       .  S
C1316      C1317   1.412       .  A
C1317      C1318   1.410       .  A
C1317     Br1324   1.931       .  S
C1318      C1319   1.414       .  A
C1318     Br1323   1.935       .  S
C1319      C1320   1.411       .  A
C1320     Br1321   1.933       .  S
C1325      C1326   1.411       .  A
C1325      C1330   1.407       .  A
C1325     Br1332   1.921   1_455  S
C1326      C1327   1.407       .  A
C1327      C1328   1.412       .  A
C1327     Br1334   1.936   1_565  S
C1328      C1329   1.427       .  A
C1328     Br1333   1.937   1_565  S
C1329      C1330   1.413       .  A
C1330     Br1331   1.938       .  S
C1335      C1336   1.419       .  A
C1335      C1340   1.417       .  A
C1335     Br1342   1.936       .  S
C1336      C1337   1.425       .  A
C1337      C1338   1.415       .  A
C1337     Br1344   1.938       .  S
C1338      C1339   1.421       .  A
C1338     Br1343   1.941       .  S
C1339      C1340   1.421       .  A
C1340     Br1341   1.936       .  S
C1345      C1346   1.412       .  A
C1345      C1350   1.407       .  A
C1345     Br1352   1.936       .  S
C1346      C1347   1.413       .  A
C1347      C1348   1.410       .  A
C1347     Br1354   1.937       .  S
C1348      C1349   1.422       .  A
C1348     Br1353   1.938       .  S
C1349      C1350   1.418       .  A
C1350     Br1351   1.934       .  S
C1355      C1356   1.429       .  A
C1355      C1360   1.401       .  A
C1355     Br1362   1.943       .  S
C1356      C1357   1.423       .  A
C1357      C1358   1.412       .  A
C1357     Br1364   1.936   1_556  S
C1358      C1359   1.408       .  A
C1358     Br1363   1.933   1_556  S
C1359      C1360   1.403       .  A
C1360     Br1361   1.939       .  S
C1365      C1366   1.417       .  A
C1365      C1370   1.416   1_556  A
C1365     Br1372   1.931       .  S
C1366      C1367   1.413   1_556  A
C1367      C1368   1.414       .  A
C1367     Br1374   1.939       .  S
C1368      C1369   1.422       .  A
C1368     Br1373   1.927       .  S
C1369      C1370   1.420       .  A
C1370     Br1371   1.937       .  S
C1375      C1376   1.420       .  A
C1375      C1380   1.411       .  A
C1375     Br1382   1.934       .  S
C1376      C1377   1.416       .  A
C1377      C1378   1.409       .  A
C1377     Br1384   1.938       .  S
C1378      C1379   1.416       .  A
C1378     Br1383   1.931       .  S
C1379      C1380   1.414       .  A
C1380     Br1381   1.935       .  S
C1385      C1386   1.408   1_556  A
C1385      C1390   1.414       .  A
C1385     Br1392   1.935   1_545  S
C1386      C1387   1.413   1_554  A
C1387      C1388   1.409       .  A
C1387     Br1394   1.913   1_556  S
C1388      C1389   1.409       .  A
C1388     Br1393   1.937       .  S
C1389      C1390   1.428       .  A
C1390     Br1391   1.936       .  S
C1395      C1396   1.402       .  A
C1395      C1400   1.403       .  A
C1395     Br1402   1.920       .  S
C1396      C1397   1.416       .  A
C1397      C1398   1.400       .  A
C1397     Br1404   1.934       .  S
C1398      C1399   1.401       .  A
C1398     Br1403   1.928       .  S
C1399      C1400   1.416       .  A
C1400     Br1401   1.936       .  S
C1405      C1406   1.414       .  A
C1405      C1410   1.401   1_565  A
C1405     Br1412   1.932       .  S
C1406      C1407   1.412       .  A
C1407      C1408   1.408   1_565  A
C1407     Br1414   1.932       .  S
C1408      C1409   1.417       .  A
C1408     Br1413   1.934       .  S
C1409      C1410   1.410       .  A
C1410     Br1411   1.936       .  S
C1415      C1416   1.419       .  A
C1415      C1420   1.407       .  A
C1415     Br1422   1.932       .  S
C1416      C1417   1.413       .  A
C1417      C1418   1.413       .  A
C1417     Br1424   1.930       .  S
C1418      C1419   1.412       .  A
C1418     Br1423   1.932       .  S
C1419      C1420   1.404       .  A
C1420     Br1421   1.933       .  S
C1425      C1426   1.417       .  A
C1425      C1430   1.414       .  A
C1425     Br1432   1.932       .  S
C1426      C1427   1.430       .  A
C1427      C1428   1.415       .  A
C1427     Br1434   1.934       .  S
C1428      C1429   1.404       .  A
C1428     Br1433   1.932       .  S
C1429      C1430   1.410       .  A
C1430     Br1431   1.924       .  S
C1435      C1436   1.415       .  A
C1435      C1440   1.411       .  A
C1435     Br1442   1.935       .  S
C1436      C1437   1.419       .  A
C1437      C1438   1.410       .  A
C1437     Br1444   1.936       .  S
C1438      C1439   1.416       .  A
C1438     Br1443   1.937       .  S
C1439      C1440   1.418       .  A
C1440     Br1441   1.935       .  S
C1445      C1446   1.407       .  A
C1445      C1450   1.407       .  A
C1445     Br1452   1.921       .  S
C1446      C1447   1.403       .  A
C1447      C1448   1.412       .  A
C1447     Br1454   1.932   1_545  S
C1448      C1449   1.431       .  A
C1448     Br1453   1.937   1_545  S
C1449      C1450   1.414       .  A
C1450     Br1451   1.926       .  S
C1455      C1456   1.411       .  A
C1455      C1460   1.402       .  A
C1455     Br1462   1.933       .  S
C1456      C1457   1.405       .  A
C1457      C1458   1.403       .  A
C1457     Br1464   1.930       .  S
C1458      C1459   1.413       .  A
C1458     Br1463   1.933       .  S
C1459      C1460   1.405       .  A
C1460     Br1461   1.927       .  S
C1465      C1466   1.410       .  A
C1465      C1470   1.419       .  A
C1465     Br1472   1.933       .  S
C1466      C1467   1.420       .  A
C1467      C1468   1.409       .  A
C1467     Br1474   1.929       .  S
C1468      C1469   1.414       .  A
C1468     Br1473   1.938       .  S
C1469      C1470   1.428       .  A
C1470     Br1471   1.932   1_565  S
C1475      C1476   1.402       .  A
C1475      C1480   1.411       .  A
C1475     Br1482   1.933       .  S
C1476      C1477   1.412       .  A
C1477      C1478   1.410       .  A
C1477     Br1484   1.921       .  S
C1478      C1479   1.409       .  A
C1478     Br1483   1.928       .  S
C1479      C1480   1.430       .  A
C1480     Br1481   1.935       .  S
C1485      C1486   1.414       .  A
C1485      C1490   1.414       .  A
C1485     Br1492   1.932       .  S
C1486      C1487   1.416       .  A
C1487      C1488   1.412       .  A
C1487     Br1494   1.931       .  S
C1488      C1489   1.421       .  A
C1488     Br1493   1.941   1_565  S
C1489      C1490   1.419       .  A
C1490     Br1491   1.933       .  S
C1495      C1496   1.427       .  A
C1495      C1500   1.403       .  A
C1495     Br1502   1.941       .  S
C1496      C1497   1.421       .  A
C1497      C1498   1.412       .  A
C1497     Br1504   1.932       .  S
C1498      C1499   1.408       .  A
C1498     Br1503   1.931       .  S
C1499      C1500   1.405       .  A
C1500     Br1501   1.939       .  S
C1505      C1506   1.414       .  A
C1505      C1510   1.406   1_545  A
C1505     Br1512   1.940       .  S
C1506      C1507   1.423   1_556  A
C1507      C1508   1.405   1_545  A
C1507     Br1514   1.941       .  S
C1508      C1509   1.411       .  A
C1508     Br1513   1.937       .  S
C1509      C1510   1.422   1_554  A
C1510     Br1511   1.940       .  S
C1515      C1516   1.414       .  A
C1515      C1520   1.413       .  A
C1515     Br1522   1.931       .  S
C1516      C1517   1.416       .  A
C1517      C1518   1.407       .  A
C1517     Br1524   1.928       .  S
C1518      C1519   1.405       .  A
C1518     Br1523   1.932       .  S
C1519      C1520   1.413       .  A
C1520     Br1521   1.932       .  S
C1525      C1526   1.411       .  A
C1525      C1530   1.409   1_554  A
C1525     Br1532   1.934       .  S
C1526      C1527   1.431       .  A
C1527      C1528   1.414       .  A
C1527     Br1534   1.937   1_565  S
C1528      C1529   1.406   1_554  A
C1528     Br1533   1.935   1_565  S
C1529      C1530   1.413       .  A
C1530     Br1531   1.916       .  S
C1535      C1536   1.412       .  A
C1535      C1540   1.408   1_556  A
C1535     Br1542   1.939       .  S
C1536      C1537   1.423       .  A
C1537      C1538   1.408       .  A
C1537     Br1544   1.932       .  S
C1538      C1539   1.408   1_556  A
C1538     Br1543   1.939       .  S
C1539      C1540   1.415       .  A
C1540     Br1541   1.921       .  S
C1545      C1546   1.423       .  A
C1545      C1550   1.414       .  A
C1545     Br1552   1.939       .  S
C1546      C1547   1.425       .  A
C1547      C1548   1.415       .  A
C1547     Br1554   1.936       .  S
C1548      C1549   1.413       .  A
C1548     Br1553   1.936       .  S
C1549      C1550   1.414       .  A
C1550     Br1551   1.928       .  S
C1555      C1556   1.425       .  A
C1555      C1560   1.406       .  A
C1555     Br1562   1.939       .  S
C1556      C1557   1.416       .  A
C1557      C1558   1.411       .  A
C1557     Br1564   1.929       .  S
C1558      C1559   1.408       .  A
C1558     Br1563   1.924       .  S
C1559      C1560   1.403       .  A
C1560     Br1561   1.928       .  S
C1565      C1566   1.420   1_545  A
C1565      C1570   1.405       .  A
C1565     Br1572   1.933       .  S
C1566      C1567   1.410       .  A
C1567      C1568   1.408   1_565  A
C1567     Br1574   1.936       .  S
C1568      C1569   1.420       .  A
C1568     Br1573   1.932   1_545  S
C1569      C1570   1.406       .  A
C1570     Br1571   1.931       .  S
C1575      C1576   1.411       .  A
C1575      C1580   1.420       .  A
C1575     Br1582   1.935       .  S
C1576      C1577   1.423       .  A
C1577      C1578   1.412       .  A
C1577     Br1584   1.934       .  S
C1578      C1579   1.418       .  A
C1578     Br1583   1.938       .  S
C1579      C1580   1.429       .  A
C1580     Br1581   1.931       .  S
C1585      C1586   1.412       .  A
C1585      C1590   1.408       .  A
C1585     Br1592   1.932       .  S
C1586      C1587   1.416       .  A
C1587      C1588   1.411       .  A
C1587     Br1594   1.931       .  S
C1588      C1589   1.415       .  A
C1588     Br1593   1.934       .  S
C1589      C1590   1.418       .  A
C1590     Br1591   1.931       .  S
C1595      C1596   1.416       .  A
C1595      C1600   1.412       .  A
C1595     Br1602   1.926   1_655  S
C1596      C1597   1.413       .  A
C1597      C1598   1.413       .  A
C1597     Br1604   1.939   1_545  S
C1598      C1599   1.423       .  A
C1598     Br1603   1.928       .  S
C1599      C1600   1.417       .  A
C1600     Br1601   1.938       .  S
C1605      C1606   1.401       .  A
C1605      C1610   1.398       .  A
C1605     Br1612   1.927       .  S
C1606      C1607   1.413       .  A
C1607      C1608   1.396       .  A
C1607     Br1614   1.933       .  S
C1608      C1609   1.401       .  A
C1608     Br1613   1.930       .  S
C1609      C1610   1.411       .  A
C1610     Br1611   1.932       .  S
C1615      C1616   1.412       .  A
C1615      C1620   1.399   1_545  A
C1615     Br1622   1.925       .  S
C1616      C1617   1.400   1_655  A
C1617      C1618   1.399       .  A
C1617     Br1624   1.927       .  S
C1618      C1619   1.415   1_445  A
C1618     Br1623   1.928       .  S
C1619      C1620   1.400       .  A
C1620     Br1621   1.925       .  S
C1625      C1626   1.406       .  A
C1625      C1630   1.412       .  A
C1625     Br1632   1.931       .  S
C1626      C1627   1.411       .  A
C1627      C1628   1.410       .  A
C1627     Br1634   1.927       .  S
C1628      C1629   1.415       .  A
C1628     Br1633   1.935       .  S
C1629      C1630   1.421       .  A
C1630     Br1631   1.932       .  S
C1635      C1636   1.405       .  A
C1635      C1640   1.410       .  A
C1635     Br1642   1.924       .  S
C1636      C1637   1.414       .  A
C1637      C1638   1.408       .  A
C1637     Br1644   1.922   1_455  S
C1638      C1639   1.406       .  A
C1638     Br1643   1.928       .  S
C1639      C1640   1.414       .  A
C1640     Br1641   1.925       .  S
C1645      C1646   1.416       .  A
C1645      C1650   1.414       .  A
C1645     Br1652   1.934       .  S
C1646      C1647   1.413       .  A
C1647      C1648   1.411       .  A
C1647     Br1654   1.934       .  S
C1648      C1649   1.423       .  A
C1648     Br1653   1.933   1_545  S
C1649      C1650   1.418       .  A
C1650     Br1651   1.934       .  S
C1655      C1656   1.412       .  A
C1655      C1660   1.413       .  A
C1655     Br1662   1.936       .  S
C1656      C1657   1.418       .  A
C1657      C1658   1.412       .  A
C1657     Br1664   1.933   1_545  S
C1658      C1659   1.412       .  A
C1658     Br1663   1.934       .  S
C1659      C1660   1.426       .  A
C1660     Br1661   1.935       .  S
