geometry optimzed in LAMMPS
_audit_creation_date              2020-12-01 
_audit_creation_method            'lammps2cif' 
_symmetry_space_group_name_H-M    'P1' 
_symmetry_Int_Tables_number       1 
_symmetry_cell_setting            triclinic 
loop_ 
_symmetry_equiv_pos_as_xyz 
  x,y,z 
_cell_length_a                    29.17793438 
_cell_length_b                    44.82885108450547 
_cell_length_c                    29.366706011794165 
_cell_angle_alpha                 90.21264572811104 
_cell_angle_beta                  109.03497623213866 
_cell_angle_gamma                 89.97941048976784 
loop_ 
_atom_site_label 
_atom_site_type_symbol 
_atom_site_fract_x 
_atom_site_fract_y 
_atom_site_fract_z 
_atom_site_charge 
O1          O  0.72926131  0.78384045  0.32557170    -0.81500
C2          C  0.60891633  0.85663781  0.18342995     0.97800
O3          O  0.60842896  0.85788400  0.22652949    -0.70600
O4          O  0.59797972  0.80463028  0.25527702    -0.74200
Al5        Al  0.64536077  0.83371540  0.28143010     1.49000
C6          C  0.60213717  0.77680653  0.25568893     0.93100
O7          O  0.68161719  0.77529519  0.19018787    -0.80500
O8          O  0.77517593  0.83866203  0.25663750    -0.74000
Al9        Al  0.70432801  0.78178897  0.25806890     1.90100
O10         O  0.71598425  0.81505244  0.17271728    -0.73100
O11         O  0.70741363  0.88008938  0.25159682    -0.72900
O12         O  0.64698729  0.85020468  0.17439790    -0.78600
O13         O  0.68655548  0.86590429  0.31292193    -0.76800
O14         O  0.68648358  0.81985000  0.25273875    -1.12900
O15         O  0.67258510  0.81050697  0.33987180    -0.72100
C16         C  0.70714119  0.79186851  0.35384558     0.98600
C17         C  0.69727070  0.78968458  0.16143565     0.95000
Al18       Al  0.70935234  0.84417077  0.21719365     1.55600
O19         O  0.64303971  0.76540273  0.25987932    -0.76800
C20         C  0.70213881  0.88581012  0.29159682     0.99200
C21         C  0.79494436  0.81315485  0.26162206     0.94000
O22         O  0.76967412  0.78967443  0.25831440    -0.82100
O23         O  0.22652901  0.79173214  0.69731818    -0.81500
C24         C  0.34030993  0.85155367  0.86724259     0.97800
O25         O  0.34609333  0.85378531  0.82638147    -0.70600
O26         O  0.35784315  0.80193083  0.78790234    -0.74200
Al27       Al  0.31396691  0.83403894  0.76488923     1.49000
C28         C  0.34990993  0.77500955  0.77515961     0.93100
O29         O  0.26441933  0.76527890  0.82647859    -0.80500
O30         O  0.17777460  0.83440653  0.77729358    -0.74000
Al31       Al  0.24634383  0.78049789  0.76283803     1.90100
O32         O  0.23243598  0.80194727  0.85584067    -0.73100
O33         O  0.24682339  0.87575523  0.79775882    -0.72900
O34         O  0.30204971  0.84009467  0.87003839    -0.78600
O35         O  0.27660931  0.86854272  0.73924857    -0.76800
O36         O  0.26739477  0.81712028  0.78292642    -1.12900
O37         O  0.29161997  0.81744995  0.70043203    -0.72100
C38         C  0.25465891  0.80238350  0.67670881     0.98600
C39         C  0.24895955  0.77573276  0.85861284     0.95000
Al40       Al  0.24191476  0.83651271  0.82174297     1.55600
O41         O  0.30690879  0.76540589  0.75982398    -0.76800
C42         C  0.25785509  0.88559643  0.76246111     0.99200
C43         C  0.15634581  0.80980473  0.76453644     0.94000
O44         O  0.18065794  0.78690713  0.76160965    -0.82100
O45         O  0.68434234  0.70130160  0.73407528    -0.81500
C46         C  0.84495935  0.63880402  0.85705795     0.97800
O47         O  0.80113589  0.63140070  0.84809465    -0.70600
O48         O  0.75855980  0.67957079  0.86502405    -0.74200
Al49       Al  0.74315059  0.65266047  0.81291068     1.49000
C50         C  0.74686054  0.70668309  0.86263076     0.93100
O51         O  0.81277345  0.73008831  0.79197475    -0.80500
O52         O  0.78479062  0.66734529  0.69388969    -0.74000
Al53       Al  0.75000293  0.71286792  0.76438679     1.90100
O54         O  0.85328159  0.69690406  0.76559108    -0.73100
O55         O  0.79403313  0.61991747  0.75178884    -0.72900
O56         O  0.85711836  0.65345195  0.82614797    -0.78600
O57         O  0.72418332  0.62284305  0.76437124    -0.76800
O58         O  0.77032038  0.67547364  0.77909944    -1.12900
O59         O  0.67962647  0.66907801  0.78752072    -0.72100
C60         C  0.65924240  0.68732595  0.75462058     0.98600
C61         C  0.84994801  0.72255453  0.78187086     0.95000
Al62       Al  0.81826098  0.66050900  0.76086738     1.55600
O63         O  0.73899069  0.72124959  0.82410212    -0.76800
C64         C  0.75399301  0.60826709  0.75022858     0.99200
C65         C  0.76675685  0.69217581  0.67650343     0.94000
O66         O  0.75653650  0.71194602  0.70229130    -0.82100
O67         O  0.26603590  0.70244771  0.27738555    -0.81500
C68         C  0.09889537  0.63724531  0.18677681     0.97800
O69         O  0.14034851  0.62644190  0.19228645    -0.70600
O70         O  0.18130054  0.66868336  0.15991791    -0.74200
Al71       Al  0.20128256  0.64698195  0.21766586     1.49000
C72         C  0.19218747  0.69506065  0.15366476     0.93100
O73         O  0.13378221  0.72766657  0.22813722    -0.80500
O74         O  0.18113808  0.67555221  0.34248449    -0.74000
Al75       Al  0.19887855  0.71219686  0.25252655     1.90100
O76         O  0.10438422  0.70033674  0.27362493    -0.73100
O77         O  0.16028823  0.62292422  0.29317099    -0.72900
O78         O  0.09179686  0.65318834  0.21937443    -0.78600
O79         O  0.22423465  0.62099682  0.27108878    -0.76800
O80         O  0.17998802  0.67434112  0.25032973    -1.12900
O81         O  0.26590547  0.66240319  0.23461137    -0.72100
C82         C  0.28859910  0.68380193  0.26026007     0.98600
C83         C  0.10121897  0.72263221  0.24695938     0.95000
Al84       Al  0.13808948  0.66356423  0.27986932     1.55600
O85         O  0.20214855  0.71345629  0.18825349    -0.76800
C86         C  0.19730839  0.60891415  0.29156410     0.99200
C87         C  0.19693252  0.70218602  0.35124104     0.94000
O88         O  0.20021487  0.71824291  0.31711274    -0.82100
O89         O  0.75949280  0.20447591  0.24372703    -0.81500
C90         C  0.60697838  0.12996978  0.15723892     0.97800
O91         O  0.64575975  0.13945178  0.15256568    -0.70600
O92         O  0.71184535  0.17845922  0.15622787    -0.74200
Al93       Al  0.70528094  0.14840422  0.19941336     1.49000
C94         C  0.69232490  0.20366305  0.14508127     0.93100
O95         O  0.63127320  0.22458023  0.24002630    -0.80500
O96         O  0.65211627  0.18022391  0.31369338    -0.74000
Al97       Al  0.69320206  0.20983413  0.24026664     1.90100
O98         O  0.58462649  0.18553427  0.22264278    -0.73100
O99         O  0.67161523  0.12470884  0.28895524    -0.72900
O100        O  0.60119527  0.13121130  0.19825016    -0.78600
O101        O  0.70371769  0.11259830  0.23379270    -0.76800
O102        O  0.67690427  0.17146633  0.23177788    -1.12900
O103        O  0.76938001  0.15603024  0.24259349    -0.72100
C104        C  0.78705202  0.18211784  0.24837348     0.98600
C105        C  0.58961444  0.21320281  0.22975825     0.95000
Al106      Al  0.63163967  0.15658535  0.25422630     1.55600
O107        O  0.67398220  0.21735005  0.17265028    -0.76800
C108        C  0.69162398  0.10567569  0.26988508     0.99200
C109        C  0.68652241  0.19869361  0.33149819     0.94000
O110        O  0.71380993  0.20632401  0.30787066    -0.82100
O111        O  0.18660951  0.20430952  0.74384657    -0.81500
C112        C  0.35173678  0.13577200  0.83437388     0.97800
O113        O  0.30931851  0.12625262  0.82778543    -0.70600
O114        O  0.27248131  0.17060142  0.86073974    -0.74200
Al115      Al  0.25004272  0.14867376  0.80332722     1.49000
C116        C  0.26513214  0.19766695  0.86713632     0.93100
O117        O  0.31897339  0.22901208  0.78787663    -0.80500
O118        O  0.27410861  0.17334016  0.67936934    -0.74000
Al119      Al  0.25429005  0.21313597  0.76636330     1.90100
O120        O  0.34987702  0.19878260  0.74729943    -0.73100
O121        O  0.29127416  0.12183332  0.73078591    -0.72900
O122        O  0.36040103  0.15257749  0.80375088    -0.78600
O123        O  0.22507609  0.12311292  0.74922026    -0.76800
O124        O  0.27266058  0.17502607  0.77035420    -1.12900
O125        O  0.18647278  0.16555176  0.78880931    -0.72100
C126        C  0.16454396  0.18696435  0.76321313     0.98600
C127        C  0.35115259  0.22301988  0.76919798     0.95000
Al128      Al  0.31520493  0.16248515  0.74251897     1.55600
O129        O  0.25503505  0.21585858  0.83226874    -0.76800
C130        C  0.25280026  0.10909943  0.73155152     0.99200
C131        C  0.25662403  0.19935033  0.66852775     0.94000
O132        O  0.25038573  0.21679960  0.70009443    -0.82100
O133        O  0.72395276  0.28748971  0.67818079    -0.81500
C134        C  0.82897748  0.35144829  0.84476119     0.97800
O135        O  0.83827614  0.35262685  0.80552111    -0.70600
O136        O  0.85019568  0.30119066  0.77224702    -0.74200
Al137      Al  0.80828311  0.33260399  0.74427430     1.49000
C138        C  0.84468707  0.27434403  0.75996123     0.93100
O139        O  0.75281964  0.26840338  0.81073008    -0.80500
O140        O  0.66818167  0.33585898  0.74399256    -0.74000
Al141      Al  0.73967854  0.27992054  0.74454313     1.90100
O142        O  0.71657376  0.30734420  0.82845382    -0.73100
O143        O  0.73749610  0.37722204  0.76653856    -0.72900
O144        O  0.78743735  0.34447034  0.84536690    -0.78600
O145        O  0.77453631  0.36741419  0.71450811    -0.76800
O146        O  0.75930961  0.31750968  0.76026682    -1.12900
O147        O  0.78805560  0.31417297  0.68032781    -0.72100
C148        C  0.75173672  0.29822721  0.65727561     0.98600
C149        C  0.73208227  0.28102431  0.83749736     0.95000
Al150      Al  0.72989549  0.33950405  0.79304427     1.55600
O151        O  0.80231312  0.26351484  0.74619517    -0.76800
C152        C  0.75304841  0.38551020  0.73338857     0.99200
C153        C  0.64711264  0.31089720  0.73345632     0.94000
O154        O  0.67233998  0.28740313  0.73726788    -0.82100
O155        O  0.22790308  0.29083812  0.31870306    -0.81500
C156        C  0.09999753  0.35310809  0.16138529     0.97800
O157        O  0.09902913  0.35448430  0.20427656    -0.70600
O158        O  0.09268738  0.30100957  0.23865992    -0.74200
Al159      Al  0.13659336  0.33305766  0.26237429     1.49000
C160        C  0.10145286  0.27366797  0.24686704     0.93100
O161        O  0.18261536  0.26821165  0.18750525    -0.80500
O162        O  0.26713383  0.33815288  0.23539668    -0.74000
Al163      Al  0.20348900  0.28161426  0.25261802     1.90100
O164        O  0.20778027  0.30767932  0.15845925    -0.73100
O165        O  0.19663195  0.37781913  0.22631035    -0.72900
O166        O  0.13729454  0.34354064  0.15368761    -0.78600
O167        O  0.17450989  0.36777872  0.28898872    -0.76800
O168        O  0.18029471  0.31832460  0.23755677    -1.12900
O169        O  0.16404219  0.31359573  0.32511018    -0.72100
C170        C  0.20221096  0.29826680  0.34390957     0.98600
C171        C  0.19597249  0.28055540  0.15538141     0.95000
Al172      Al  0.20033129  0.34010428  0.19709231     1.55600
O173        O  0.14461978  0.26425048  0.25842447    -0.76800
C174        C  0.18945056  0.38621793  0.26451508     0.99200
C175        C  0.28931313  0.31360147  0.24587421     0.94000
O176        O  0.26706152  0.29017522  0.25021702    -0.82100
C177        C  0.02502240  0.37266322  0.03183128    -0.05200
C178        C  0.97768494  0.36644621  0.03156124     0.09000
C179        C  0.96949872  0.36041717  0.07539787    -0.02600
C180        C  0.00894569  0.35848770  0.11893491    -0.00800
C181        C  0.05725147  0.36186888  0.11866588    -0.04500
C182        C  0.06452859  0.37067657  0.07494872     0.02600
C183        C  0.93779646  0.36295235  0.98424821     0.09400
C184        C  0.92047296  0.35489634  0.07520836     0.35300
C185        C  0.11271285  0.37742773  0.07345739     0.38700
C186        C  0.93027574  0.33484803  0.96119819    -0.04800
C187        C  0.89540803  0.33144487  0.91517450     0.02300
C188        C  0.86792803  0.35615736  0.89149673    -0.04400
C189        C  0.87504066  0.38425193  0.91459991    -0.00700
C190        C  0.90997701  0.38765794  0.96091370    -0.03200
C191        C  0.95880435  0.30938618  0.98491436     0.36000
C192        C  0.84633017  0.40952863  0.89063910     0.39700
C193        C  0.88758177  0.30227881  0.89245778     0.38800
C194        C  0.91743546  0.41648574  0.98466484     0.35700
C195        C  0.03324470  0.37977613  0.98691630     0.36400
C196        C  0.99942356  0.35150499  0.16319249     0.39600
N197        N  0.88185722  0.27883850  0.87492409    -0.38400
N198        N  0.98159060  0.28911789  0.00386463    -0.40000
N199        N  0.82332011  0.42962216  0.87129030    -0.37800
N200        N  0.92343121  0.43946835  0.00378640    -0.40100
N201        N  0.88135755  0.35045149  0.07504265    -0.39900
N202        N  0.99165173  0.34588948  0.19842072    -0.37500
N203        N  0.15100149  0.38276816  0.07196273    -0.38600
N204        N  0.03967391  0.38535318  0.95102906    -0.40300
C205        C  0.24164109  0.24353102  0.44949686    -0.05200
C206        C  0.22848012  0.25873495  0.48542731     0.09000
C207        C  0.21004272  0.28804971  0.47639357    -0.02600
C208        C  0.20173020  0.30129981  0.43062418    -0.00800
C209        C  0.21488757  0.28609988  0.39427897    -0.04500
C210        C  0.23721142  0.25751109  0.40530983     0.02600
C211        C  0.23502691  0.24364759  0.53288833     0.09400
C212        C  0.20017773  0.30469139  0.51459871     0.35300
C213        C  0.25383423  0.24119057  0.37078969     0.38700
C214        C  0.28215860  0.23747638  0.56439674    -0.04800
C215        C  0.28872375  0.22037269  0.60626500     0.02300
C216        C  0.24833505  0.21155419  0.61952955    -0.04400
C217        C  0.20121579  0.21892025  0.58929348    -0.00700
C218        C  0.19449846  0.23388177  0.54522274    -0.03200
C219        C  0.32402171  0.24960208  0.55447512     0.36000
C220        C  0.15969496  0.21125772  0.60369525     0.39700
C221        C  0.33738701  0.21246237  0.63622186     0.38800
C222        C  0.14592914  0.23914298  0.51245139     0.35700
C223        C  0.25823290  0.21282067  0.45740468     0.36400
C224        C  0.18027304  0.33075596  0.42151851     0.39600
N225        N  0.37634998  0.20596764  0.65948694    -0.38400
N226        N  0.35739687  0.25952708  0.54687167    -0.40000
N227        N  0.12651674  0.20540160  0.61530449    -0.37800
N228        N  0.10722137  0.24336201  0.48616115    -0.40100
N229        N  0.19265729  0.31792192  0.54531291    -0.39900
N230        N  0.16280148  0.35419938  0.41429848    -0.37500
N231        N  0.26738281  0.22790099  0.34381222    -0.38600
N232        N  0.27115488  0.18829934  0.46357854    -0.40300
C233        C  0.27338514  0.24667514  0.97613764    -0.05200
C234        C  0.24909611  0.22866934  0.00027390     0.09000
C235        C  0.23500029  0.19950821  0.98383385    -0.02600
C236        C  0.24290012  0.18876005  0.94194849    -0.00800
C237        C  0.26457258  0.20741443  0.91557308    -0.04500
C238        C  0.28091637  0.23620026  0.93374342     0.02600
C239        C  0.23430067  0.24108763  0.04057637     0.09400
C240        C  0.21002121  0.18107476  0.00889721     0.35300
C241        C  0.30458496  0.25535400  0.90850497     0.38700
C242        C  0.19296974  0.25955566  0.03013426    -0.04800
C243        C  0.17784336  0.27075238  0.06774488     0.02300
C244        C  0.20348186  0.26314238  0.11582585    -0.04400
C245        C  0.24343305  0.24353244  0.12611813    -0.00700
C246        C  0.25936362  0.23294098  0.08862188    -0.03200
C247        C  0.16643174  0.26734357  0.98065012     0.36000
C248        C  0.26911946  0.23505011  0.17548567     0.39700
C249        C  0.13568129  0.28997373  0.05704169     0.38800
C250        C  0.30233170  0.21439560  0.09952109     0.35700
C251        C  0.28934469  0.27634336  0.99435089     0.36400
C252        C  0.22544681  0.15908874  0.92481912     0.39600
N253        N  0.10177453  0.30507594  0.04829977    -0.38400
N254        N  0.14546430  0.27368776  0.94117947    -0.40000
N255        N  0.28916655  0.22811414  0.21488755    -0.37800
N256        N  0.33674122  0.19971775  0.10834231    -0.40100
N257        N  0.19006308  0.16651780  0.02897620    -0.39900
N258        N  0.21145454  0.13539146  0.91164159    -0.37500
N259        N  0.32341284  0.27069233  0.88835275    -0.38600
N260        N  0.30196197  0.30001365  0.00892271    -0.40300
C261        C  0.47556261  0.25524530  0.78427039    -0.05200
C262        C  0.46372872  0.27787434  0.74896158     0.09000
C263        C  0.41460060  0.28544253  0.72628028    -0.02600
C264        C  0.37756170  0.26928205  0.73675278    -0.00800
C265        C  0.38940730  0.24488862  0.76898822    -0.04500
C266        C  0.43866904  0.23820721  0.79306135     0.02600
C267        C  0.50324633  0.29103279  0.73274525     0.09400
C268        C  0.40215247  0.30887737  0.69046862     0.35300
C269        C  0.45182870  0.21262481  0.82469848     0.38700
C270        C  0.52407658  0.27361797  0.70451420    -0.04800
C271        C  0.56880997  0.28199185  0.69946519     0.02300
C272        C  0.59321321  0.30800957  0.72270677    -0.04400
C273        C  0.56752457  0.32813200  0.74311495    -0.00700
C274        C  0.52316754  0.31930329  0.74899636    -0.03200
C275        C  0.49999407  0.24649864  0.68186927     0.36000
C276        C  0.58784440  0.35700260  0.76147022     0.39700
C277        C  0.58981181  0.26351531  0.67072865     0.38800
C278        C  0.49922375  0.33868860  0.77380821     0.35700
C279        C  0.52603031  0.24873376  0.81040690     0.36400
C280        C  0.32715035  0.27626231  0.71135104     0.39600
N281        N  0.60637192  0.24874611  0.64767686    -0.38400
N282        N  0.48065661  0.22495228  0.66358564    -0.40000
N283        N  0.60391432  0.38002153  0.77638668    -0.37800
N284        N  0.48000424  0.35430725  0.79332078    -0.40100
N285        N  0.39228821  0.32763675  0.66195412    -0.39900
N286        N  0.28698845  0.28188291  0.69086591    -0.37500
N287        N  0.46359608  0.19210071  0.84954754    -0.38600
N288        N  0.56619506  0.24349203  0.83146697    -0.40300
C289        C  0.05983930  0.21755495  0.79898956    -0.05200
C290        C  0.01910792  0.20962219  0.75933087     0.09000
C291        C  0.02597081  0.19236518  0.72161161    -0.02600
C292        C  0.07330821  0.18336099  0.72378195    -0.00800
C293        C  0.11409372  0.19399439  0.76121815    -0.04500
C294        C  0.10686089  0.21196177  0.79789434     0.02600
C295        C  0.97162182  0.22476019  0.75426127     0.09400
C296        C  0.98477554  0.18527279  0.67961353     0.35300
C297        C  0.14683520  0.22801439  0.83140685     0.38700
C298        C  0.96902835  0.25596967  0.74865056    -0.04800
C299        C  0.92901626  0.27197332  0.75266389     0.02300
C300        C  0.88850669  0.25675795  0.75896398    -0.04400
C301        C  0.89003520  0.22510299  0.76155075    -0.00700
C302        C  0.93171645  0.20928863  0.75997183    -0.03200
C303        C  0.00844205  0.27182365  0.73907888     0.36000
C304        C  0.84950204  0.20860876  0.76714400     0.39700
C305        C  0.93009694  0.30424922  0.74855548     0.38800
C306        C  0.93378371  0.17710880  0.76461442     0.35700
C307        C  0.05325832  0.23350850  0.83958653     0.36400
C308        C  0.08019135  0.16417237  0.68676822     0.39600
N309        N  0.93186402  0.32991781  0.74521191    -0.38400
N310        N  0.03995744  0.28431799  0.73164663    -0.40000
N311        N  0.81711112  0.19535523  0.77137098    -0.37800
N312        N  0.93529651  0.15137906  0.76792526    -0.40100
N313        N  0.95179523  0.17984543  0.64598578    -0.39900
N314        N  0.08568716  0.14869027  0.65734838    -0.37500
N315        N  0.17666450  0.24267982  0.85739742    -0.38600
N316        N  0.04778069  0.24622851  0.87178776    -0.40300
C317        C  0.68397951  0.27567684  0.52748565    -0.05200
C318        C  0.72066771  0.26062639  0.51498468     0.09000
C319        C  0.76885066  0.26181737  0.54653097    -0.02600
C320        C  0.77995924  0.27673125  0.59131470    -0.00800
C321        C  0.74259658  0.28960365  0.60586128    -0.04500
C322        C  0.69469395  0.28974576  0.57294295     0.02600
C323        C  0.70919014  0.24466087  0.46752489     0.09400
C324        C  0.80694851  0.24720003  0.53305242     0.35300
C325        C  0.65645637  0.30470847  0.58568377     0.38700
C326        C  0.71091783  0.26031552  0.42671325    -0.04800
C327        C  0.70180687  0.24542744  0.38227181     0.02300
C328        C  0.69273026  0.21418735  0.37843645    -0.04400
C329        C  0.68861043  0.19883209  0.41894319    -0.00700
C330        C  0.69696687  0.21403704  0.46333577    -0.03200
C331        C  0.72190008  0.29199789  0.43052831     0.36000
C332        C  0.67564635  0.16750059  0.41515324     0.39700
C333        C  0.69882485  0.26301275  0.33999389     0.38800
C334        C  0.69296089  0.19826516  0.50487181     0.35700
C335        C  0.63519019  0.27667265  0.49336668     0.36400
C336        C  0.82989224  0.27797718  0.62249920     0.39600
N337        N  0.69604227  0.27748020  0.30663538    -0.38400
N338        N  0.73066092  0.31724489  0.43362464    -0.40000
N339        N  0.66466440  0.14258736  0.41211429    -0.37800
N340        N  0.68962243  0.18578350  0.53807444    -0.40100
N341        N  0.83726929  0.23545059  0.52232153    -0.39900
N342        N  0.87025055  0.27898127  0.64602987    -0.37500
N343        N  0.62607288  0.31671000  0.59597464    -0.38600
N344        N  0.59641739  0.27762318  0.46585032    -0.40300
C345        C  0.68108440  0.26474973  0.93922826    -0.05200
C346        C  0.71396346  0.24352062  0.96651622     0.09000
C347        C  0.75123076  0.23270771  0.95000870    -0.02600
C348        C  0.75619380  0.24361241  0.90664177    -0.00800
C349        C  0.72421851  0.26588162  0.87985675    -0.04500
C350        C  0.68549074  0.27547353  0.89598454     0.02600
C351        C  0.70878042  0.23302780  0.01288295     0.09400
C352        C  0.78504239  0.21074680  0.97830004     0.35300
C353        C  0.64902323  0.29632562  0.86853022     0.38700
C354        C  0.66896290  0.21489128  0.01226140    -0.04800
C355        C  0.66088776  0.20774662  0.05567329     0.02300
C356        C  0.69402791  0.21714325  0.10000610    -0.04400
C357        C  0.73373801  0.23530436  0.10079099    -0.00700
C358        C  0.74048006  0.24380519  0.05723688    -0.03200
C359        C  0.63619631  0.20371624  0.96684552     0.36000
C360        C  0.76789971  0.24494707  0.14649772     0.39700
C361        C  0.61762236  0.19159716  0.05473444     0.38800
C362        C  0.77953165  0.26397568  0.05787035     0.35700
C363        C  0.64292852  0.27615268  0.95636915     0.36400
C364        C  0.79463269  0.23201067  0.89046371     0.39600
N365        N  0.58237467  0.17943540  0.05373264    -0.38400
N366        N  0.61007950  0.19487715  0.93058530    -0.40000
N367        N  0.79508405  0.25262455  0.18299299    -0.37800
N368        N  0.81049485  0.28015516  0.05806938    -0.40100
N369        N  0.81223038  0.19341751  0.00114320    -0.39900
N370        N  0.82515351  0.22228694  0.87771418    -0.37500
N371        N  0.61945113  0.31309768  0.84810266    -0.38600
N372        N  0.61246612  0.28515536  0.96989368    -0.40300
C373        C  0.90975056  0.22104836  0.28676654    -0.05200
C374        C  0.93104871  0.20871319  0.25410103     0.09000
C375        C  0.90771575  0.18472732  0.22420408    -0.02600
C376        C  0.86220905  0.17425291  0.22495490    -0.00800
C377        C  0.83954466  0.18768170  0.25585001    -0.04500
C378        C  0.86443947  0.21051879  0.28781417     0.02600
C379        C  0.97647910  0.22230908  0.24927158     0.09400
C380        C  0.92964117  0.17176771  0.19093862     0.35300
C381        C  0.84287373  0.22371661  0.32124845     0.38700
C382        C  0.02193116  0.21736955  0.28465292    -0.04800
C383        C  0.06360644  0.23275852  0.28268003     0.02300
C384        C  0.06033941  0.25309468  0.24488656    -0.04400
C385        C  0.01566699  0.25568279  0.20707937    -0.00700
C386        C  0.97385546  0.24085864  0.20971857    -0.03200
C387        C  0.02564473  0.19652314  0.32337079     0.36000
C388        C  0.01322112  0.27244887  0.16421559     0.39700
C389        C  0.10929795  0.22788715  0.32044513     0.38800
C390        C  0.92781608  0.24491916  0.17185980     0.35700
C391        C  0.93344185  0.24562760  0.31777892     0.36400
C392        C  0.83737577  0.15114507  0.19124875     0.39600
N393        N  0.14519441  0.22311160  0.35097576    -0.38400
N394        N  0.02868252  0.17982556  0.35417846    -0.40000
N395        N  0.01143606  0.28526150  0.12954834    -0.37800
N396        N  0.89102614  0.24787400  0.14161028    -0.40100
N397        N  0.94703978  0.16169819  0.16413778    -0.39900
N398        N  0.81770554  0.13274145  0.16417637    -0.37500
N399        N  0.82553778  0.23423645  0.34777633    -0.38600
N400        N  0.95233275  0.26526758  0.34246987    -0.40300
C401        C  0.39417180  0.29810409  0.20096512    -0.05200
C402        C  0.42928597  0.28733446  0.24311075     0.09000
C403        C  0.42144860  0.29063134  0.28793399    -0.02600
C404        C  0.37638884  0.30113363  0.28969905    -0.00800
C405        C  0.34035300  0.31054275  0.24718264    -0.04500
C406        C  0.35057920  0.31059164  0.20326791     0.02600
C407        C  0.47072902  0.26871977  0.23927746     0.09400
C408        C  0.45891641  0.28170719  0.33186780     0.35300
C409        C  0.31489258  0.32141091  0.15946652     0.38700
C410        C  0.50955007  0.28156246  0.22752067    -0.04800
C411        C  0.54677260  0.26334639  0.22142643     0.02300
C412        C  0.54717495  0.23214083  0.22996320    -0.04400
C413        C  0.50853676  0.21961350  0.24313710    -0.00700
C414        C  0.46988423  0.23761001  0.24583953    -0.03200
C415        C  0.51148591  0.31365141  0.22230062     0.36000
C416        C  0.50936196  0.18861847  0.25744755     0.39700
C417        C  0.58417078  0.27694027  0.20572870     0.38800
C418        C  0.42900123  0.22398581  0.25577580     0.35700
C419        C  0.40119067  0.29412966  0.15461002     0.36400
C420        C  0.36606568  0.30086978  0.33476933     0.39600
N421        N  0.61396498  0.28776074  0.19311715    -0.38400
N422        N  0.51319066  0.33925754  0.21825441    -0.40000
N423        N  0.50963950  0.16412802  0.26984002    -0.37800
N424        N  0.39655881  0.21308197  0.26384158    -0.40100
N425        N  0.48892031  0.27461773  0.36686629    -0.39900
N426        N  0.35752495  0.30046978  0.37058193    -0.37500
N427        N  0.28708894  0.33010665  0.12415933    -0.38600
N428        N  0.40679070  0.29073993  0.11769098    -0.40300
C429        C  0.43964134  0.14732168  0.96042985    -0.05200
C430        C  0.45606497  0.11800730  0.97382985     0.09000
C431        C  0.43916861  0.09438027  0.94048896    -0.02600
C432        C  0.40638549  0.10018895  0.89390791    -0.00800
C433        C  0.38997313  0.12951840  0.88080233    -0.04500
C434        C  0.40662908  0.15300393  0.91431466     0.02600
C435        C  0.49372631  0.11300673  0.02204857     0.09400
C436        C  0.45527004  0.06416016  0.95428936     0.35300
C437        C  0.38950521  0.18319781  0.90174644     0.38700
C438        C  0.48156156  0.11531015  0.06464628    -0.04800
C439        C  0.51837886  0.11793774  0.10994559     0.02300
C440        C  0.56794980  0.11858450  0.11288576    -0.04400
C441        C  0.57950977  0.11175457  0.07040838    -0.00700
C442        C  0.54267423  0.10998764  0.02526985    -0.03200
C443        C  0.43087742  0.11677952  0.06133472     0.36000
C444        C  0.62938026  0.10739404  0.07213078     0.39700
C445        C  0.50444712  0.12058000  0.15280271     0.38800
C446        C  0.55541149  0.10750520  0.98155244     0.35700
C447        C  0.45675806  0.17179761  0.99425840     0.36400
C448        C  0.39067440  0.07630516  0.85882827     0.39600
N449        N  0.49256792  0.12221406  0.18665467    -0.38400
N450        N  0.39042407  0.11815362  0.05846480    -0.40000
N451        N  0.66905440  0.10395150  0.07327896    -0.37800
N452        N  0.56549282  0.10576579  0.94665050    -0.40100
N453        N  0.46806230  0.04001592  0.96531461    -0.39900
N454        N  0.37836228  0.05748349  0.83034919    -0.37500
N455        N  0.37691670  0.20750156  0.89208191    -0.38600
N456        N  0.47003271  0.19132036  0.02125374    -0.40300
C457        C  0.17096522  0.52837173  0.31832571    -0.05200
C458        C  0.21104306  0.51340143  0.31225831     0.09000
C459        C  0.25112740  0.53012353  0.31009323    -0.02600
C460        C  0.24902616  0.56166922  0.30857886    -0.00800
C461        C  0.20611266  0.57690449  0.30839742    -0.04500
C462        C  0.16885356  0.55989807  0.31760411     0.02600
C463        C  0.20783857  0.48053107  0.30122853     0.09400
C464        C  0.29373809  0.51466169  0.30712020     0.35300
C465        C  0.12747807  0.57431865  0.32534648     0.38700
C466        C  0.18743894  0.47114453  0.25299918    -0.04800
C467        C  0.17990678  0.44057999  0.24166383     0.02300
C468        C  0.19591435  0.41861268  0.27811737    -0.07600
C469        C  0.21767905  0.42807278  0.32648756    -0.00700
C470        C  0.22281645  0.45894025  0.33801576    -0.03200
C471        C  0.17418576  0.49315920  0.21474354     0.36000
C472        C  0.23607871  0.40618395  0.36423593     0.39700
C473        C  0.15279638  0.43216608  0.19251862     0.38800
C474        C  0.24368682  0.46860607  0.38763328     0.35700
C475        C  0.13049414  0.51111462  0.32258253     0.36400
C476        C  0.29120829  0.57812696  0.30676274     0.39600
N477        N  0.13051776  0.42600592  0.15325742    -0.38400
N478        N  0.16421150  0.51069785  0.18426226    -0.40000
N479        N  0.25110106  0.38872616  0.39436335    -0.37800
N480        N  0.26025960  0.47642922  0.42722716    -0.40100
N481        N  0.32770153  0.50226318  0.30479077    -0.39900
N482        N  0.32491336  0.59121025  0.30535951    -0.37500
N483        N  0.09456235  0.58568422  0.33194787    -0.38600
N484        N  0.09818043  0.49729443  0.32573183    -0.40300
C485        C  0.74889547  0.53370384  0.68500399    -0.05200
C486        C  0.73945226  0.51379512  0.71806599     0.09000
C487        C  0.73026019  0.52531020  0.75904916    -0.02600
C488        C  0.73170833  0.55633503  0.76765428    -0.00800
C489        C  0.74424878  0.57624741  0.73624169    -0.04500
C490        C  0.75169343  0.56480070  0.69424300     0.02600
C491        C  0.74237177  0.48056954  0.71227842     0.09400
C492        C  0.72162745  0.50498430  0.79378053     0.35300
C493        C  0.76136966  0.58508680  0.66011203     0.38700
C494        C  0.78812968  0.46645689  0.72591298    -0.04800
C495        C  0.79151247  0.43508261  0.72988901     0.02300
C496        C  0.74906573  0.41753010  0.71976180    -0.04400
C497        C  0.70327230  0.43148786  0.70304018    -0.00700
C498        C  0.69990931  0.46289761  0.69929195    -0.03200
C499        C  0.83189852  0.48439408  0.73842412     0.36000
C500        C  0.65964275  0.41344477  0.69024400     0.39700
C501        C  0.83887126  0.42112846  0.74806296     0.38800
C502        C  0.65278001  0.47717070  0.68385406     0.35700
C503        C  0.75652617  0.52205486  0.64193268     0.36400
C504        C  0.72243468  0.56743471  0.81031960     0.39600
N505        N  0.87671190  0.41012234  0.76285337    -0.38400
N506        N  0.86671941  0.49877899  0.74821118    -0.40000
N507        N  0.62493768  0.39893269  0.67977234    -0.37800
N508        N  0.61515293  0.48856722  0.67170605    -0.40100
N509        N  0.71499162  0.48867806  0.82144912    -0.39900
N510        N  0.71468662  0.57610442  0.84425739    -0.37500
N511        N  0.76882884  0.60133057  0.63279583    -0.38600
N512        N  0.76264371  0.51268981  0.60759519    -0.40300
C513        C  0.90299062  0.62629938  0.99302789    -0.05200
C514        C  0.95253037  0.62513305  0.99784731     0.09000
C515        C  0.96671748  0.62567320  0.95634631    -0.02600
C516        C  0.93161881  0.62840107  0.91014996    -0.00800
C517        C  0.88167926  0.63126876  0.90501176    -0.04500
C518        C  0.86765659  0.62923102  0.94708467     0.02600
C519        C  0.98986264  0.62754079  0.04685111     0.09400
C520        C  0.01791263  0.62477675  0.96159535     0.35300
C521        C  0.81723217  0.63163293  0.94443325     0.38700
C522        C  0.00741922  0.60204762  0.07533966    -0.04800
C523        C  0.04248282  0.60505695  0.12164991     0.02300
C524        C  0.05987316  0.63358468  0.13966805    -0.04400
C525        C  0.04288703  0.65894771  0.11038179    -0.00700
C526        C  0.00755100  0.65594891  0.06465824    -0.03200
C527        C  0.98968550  0.57279494  0.05669637     0.36000
C528        C  0.06338520  0.68822289  0.12535049     0.39700
C529        C  0.06086072  0.57889828  0.15074160     0.38800
C530        C  0.98968100  0.68220551  0.03534503     0.35700
C531        C  0.88862537  0.62615698  0.03595358     0.36400
C532        C  0.94744739  0.62844797  0.86817331     0.39600
N533        N  0.07582498  0.55812920  0.17416814    -0.38400
N534        N  0.97552225  0.54943967  0.04170717    -0.40000
N535        N  0.07850062  0.71210809  0.13477698    -0.37800
N536        N  0.97544804  0.70308636  0.01193503    -0.40100
N537        N  0.05880184  0.62425706  0.96607040    -0.39900
N538        N  0.96031465  0.62866690  0.83482487    -0.37500
N539        N  0.77729685  0.63339341  0.94328893    -0.38600
N540        N  0.87725267  0.62619027  0.07020770    -0.40300
C541        C  0.27645447  0.02767446  0.70442566    -0.05200
C542        C  0.24059287  0.01280003  0.71818814     0.09000
C543        C  0.20342102  0.02950743  0.72693754    -0.02600
C544        C  0.20400605  0.06103453  0.72551062    -0.00800
C545        C  0.24365297  0.07645211  0.71798370    -0.04500
C546        C  0.27820182  0.05923573  0.70426283     0.02600
C547        C  0.24478308  0.97990928  0.72858789     0.09400
C548        C  0.16567359  0.01410757  0.73980515     0.35300
C549        C  0.31660989  0.07348426  0.69096788     0.38700
C550        C  0.26686660  0.97023124  0.77641111    -0.04800
C551        C  0.26977134  0.93955204  0.78749644     0.02300
C552        C  0.25183326  0.91800703  0.75051151    -0.04400
C553        C  0.23069722  0.92769968  0.70238101    -0.00700
C554        C  0.22686879  0.95855439  0.69154527    -0.03200
C555        C  0.28780955  0.99199519  0.81421477     0.36000
C556        C  0.21188350  0.90593844  0.66415167     0.39700
C557        C  0.29288582  0.93033881  0.83704172     0.38800
C558        C  0.20485297  0.96839701  0.64227758     0.35700
C559        C  0.31298238  0.01030472  0.69248460     0.36400
C560        C  0.16373815  0.07716418  0.73267314     0.39600
N561        N  0.31121753  0.92333533  0.87673010    -0.38400
N562        N  0.30478180  0.00932689  0.84428955    -0.40000
N563        N  0.19699164  0.88844041  0.63383426    -0.37800
N564        N  0.18744194  0.97626124  0.60290088    -0.40100
N565        N  0.13584094  0.00178704  0.75044769    -0.39900
N566        N  0.13145276  0.08989008  0.73825995    -0.37500
N567        N  0.34745133  0.08465687  0.68040935    -0.38600
N568        N  0.34193070  0.99636221  0.68283681    -0.40300
C569        C  0.19130961  0.77670248  0.54760501    -0.05200
C570        C  0.23051522  0.76403984  0.53604251     0.09000
C571        C  0.27818897  0.76797573  0.56812534    -0.02600
C572        C  0.28648947  0.78364211  0.61183231    -0.00800
C573        C  0.24689028  0.79383695  0.62555610    -0.04500
C574        C  0.19938270  0.79125938  0.59233815     0.02600
C575        C  0.22218599  0.74767594  0.48916871     0.09400
C576        C  0.31886432  0.75513787  0.55675274     0.35300
C577        C  0.15887012  0.80431299  0.60366601     0.38700
C578        C  0.23784822  0.76045276  0.45311321    -0.04800
C579        C  0.23260794  0.74486964  0.40989819     0.02300
C580        C  0.20895471  0.71644317  0.40059485    -0.04400
C581        C  0.19289302  0.70385370  0.43719146    -0.00700
C582        C  0.19988432  0.71930826  0.48116765    -0.03200
C583        C  0.25872645  0.79025062  0.46021574     0.36000
C584        C  0.16782413  0.67540469  0.42980897     0.39700
C585        C  0.25201326  0.75888025  0.37551839     0.38800
C586        C  0.18324096  0.70623821  0.51813037     0.35700
C587        C  0.14257414  0.77456388  0.51351928     0.36400
C588        C  0.33601438  0.78834092  0.64304851     0.39600
N589        N  0.26739358  0.77040191  0.34837141    -0.38400
N590        N  0.27541211  0.81394627  0.46591724    -0.40000
N591        N  0.14770191  0.65274379  0.42419403    -0.37800
N592        N  0.16954418  0.69605015  0.54748897    -0.40100
N593        N  0.35135496  0.74499300  0.54770524    -0.39900
N594        N  0.37559159  0.79229917  0.66753886    -0.37500
N595        N  0.12664074  0.81492077  0.61261569    -0.38600
N596        N  0.10369512  0.77271762  0.48635467    -0.40300
C597        C  0.20004469  0.72571587  0.93491450    -0.05200
C598        C  0.23338535  0.73154169  0.98113993     0.09000
C599        C  0.27596821  0.74798929  0.98584944    -0.02600
C600        C  0.28303062  0.76072446  0.94482488    -0.00800
C601        C  0.24750060  0.75706972  0.89924320    -0.04500
C602        C  0.20696208  0.73862586  0.89400462     0.02600
C603        C  0.22180681  0.72195582  0.02483695     0.09400
C604        C  0.31189799  0.75225741  0.03299942     0.35300
C605        C  0.17141741  0.73390881  0.84674894     0.38700
C606        C  0.22530748  0.69173655  0.03821295    -0.04800
C607        C  0.21151636  0.68246498  0.07767450     0.02300
C608        C  0.19710737  0.70385427  0.10637239    -0.04400
C609        C  0.19220669  0.73408253  0.09166342    -0.00700
C610        C  0.20435914  0.74300665  0.05103001    -0.03200
C611        C  0.24387721  0.67018115  0.01156288     0.36000
C612        C  0.17289447  0.75599791  0.11705985     0.39700
C613        C  0.21240614  0.65079099  0.08797147     0.38800
C614        C  0.19884303  0.77395683  0.03593079     0.35700
C615        C  0.15800949  0.70707400  0.92978746     0.36400
C616        C  0.32644770  0.77788327  0.94941265     0.39600
N617        N  0.21277396  0.62544157  0.09554352    -0.38400
N618        N  0.25873717  0.65303380  0.99036579    -0.40000
N619        N  0.15732297  0.77342038  0.13722011    -0.37800
N620        N  0.19462216  0.79863661  0.02382107    -0.40100
N621        N  0.34057162  0.75565132  0.07061473    -0.39900
N622        N  0.36131024  0.79131250  0.95295219    -0.37500
N623        N  0.14306181  0.73007091  0.80909109    -0.38600
N624        N  0.12488586  0.69191340  0.92613840    -0.40300
C625        C  0.47889581  0.74552139  0.80328043    -0.05200
C626        C  0.47357837  0.72641149  0.76361814     0.09000
C627        C  0.42681364  0.71959458  0.73216122    -0.02600
C628        C  0.38570970  0.73351418  0.73817581    -0.00800
C629        C  0.39132684  0.75525163  0.77501291    -0.04500
C630        C  0.43803506  0.75983601  0.80908160     0.02600
C631        C  0.51759926  0.71457388  0.75397430     0.09400
C632        C  0.42124951  0.69886473  0.69264432     0.35300
C633        C  0.44407817  0.77858910  0.85100589     0.38700
C634        C  0.53337089  0.68509840  0.76631968    -0.04800
C635        C  0.57662749  0.67481683  0.75996138     0.02300
C636        C  0.60676949  0.69473533  0.74503482    -0.04400
C637        C  0.58881893  0.72373601  0.72934859    -0.00700
C638        C  0.54420480  0.73333768  0.73336658    -0.03200
C639        C  0.50630326  0.66584708  0.78793210     0.36000
C640        C  0.61672737  0.74456437  0.71120299     0.39700
C641        C  0.58994250  0.64365753  0.76901904     0.38800
C642        C  0.52637805  0.76312876  0.71800310     0.35700
C643        C  0.52674920  0.75061948  0.83790332     0.36400
C644        C  0.33808685  0.72593002  0.70511031     0.39600
N645        N  0.60051271  0.61880964  0.77619921    -0.38400
N646        N  0.48487079  0.65064074  0.80559607    -0.40000
N647        N  0.63882198  0.76130660  0.69674568    -0.37800
N648        N  0.51215264  0.78687731  0.70584823    -0.40100
N649        N  0.41695309  0.68224648  0.66126186    -0.39900
N650        N  0.30024158  0.71961019  0.67877080    -0.37500
N651        N  0.44887564  0.79331413  0.88470559    -0.38600
N652        N  0.56496543  0.75454576  0.86544258    -0.40300
C653        C  0.03144741  0.77424733  0.73300982    -0.05200
C654        C  0.01286666  0.78863021  0.76603964     0.09000
C655        C  0.03714110  0.81374435  0.79168022    -0.02600
C656        C  0.08205726  0.82284424  0.78763094    -0.00800
C657        C  0.10351922  0.80637432  0.75833332    -0.04500
C658        C  0.07628058  0.78316247  0.72884684     0.02600
C659        C  0.96958991  0.77582840  0.77595275     0.09400
C660        C  0.01654194  0.82954511  0.82360243     0.35300
C661        C  0.09442936  0.76803328  0.69440066     0.38700
C662        C  0.97629639  0.75478013  0.81321415    -0.04800
C663        C  0.93632456  0.73889223  0.81784094     0.02300
C664        C  0.88937659  0.74418998  0.78552719    -0.04400
C665        C  0.88209639  0.76722430  0.75113206    -0.00700
C666        C  0.92220476  0.78296767  0.74632252    -0.03200
C667        C  0.02459592  0.74914791  0.84615380     0.36000
C668        C  0.83366324  0.77363291  0.71894533     0.39700
C669        C  0.94338515  0.71698197  0.85570370     0.38800
C670        C  0.91505330  0.80594938  0.71008839     0.35700
C671        C  0.00519656  0.74945710  0.70439288     0.36400
C672        C  0.10662669  0.84837116  0.81548118     0.39600
N673        N  0.94895877  0.69975510  0.88626763    -0.38400
N674        N  0.06324105  0.74505857  0.87256672    -0.40000
N675        N  0.79504102  0.77882861  0.69327718    -0.37800
N676        N  0.90951166  0.82439487  0.68133532    -0.40100
N677        N  0.00005455  0.84212422  0.84904701    -0.39900
N678        N  0.12585942  0.86889875  0.83753211    -0.37500
N679        N  0.10870542  0.75582636  0.66693519    -0.38600
N680        N  0.98461219  0.72967213  0.68128280    -0.40300
C681        C  0.68369103  0.02092243  0.26363025    -0.05200
C682        C  0.70659033  0.01254876  0.31189654     0.09000
C683        C  0.72358874  0.03487941  0.34749531    -0.02600
C684        C  0.71802535  0.06551247  0.33458468    -0.00800
C685        C  0.69648473  0.07384138  0.28575705    -0.04500
C686        C  0.67890867  0.05118209  0.25057066     0.02600
C687        C  0.71432736  0.97989654  0.32301939     0.09400
C688        C  0.74795449  0.02622719  0.39698593     0.35300
C689        C  0.65516430  0.05855255  0.20033143     0.38700
C690        C  0.75184504  0.96498325  0.31176359    -0.04800
C691        C  0.75014929  0.93372739  0.30531649     0.02300
C692        C  0.71117500  0.91697111  0.31092541    -0.04400
C693        C  0.67683590  0.93164424  0.32800182    -0.00700
C694        C  0.67829939  0.96303982  0.33364688    -0.03200
C695        C  0.79032079  0.98225984  0.30333668     0.36000
C696        C  0.63742228  0.91500665  0.33577275     0.39700
C697        C  0.78762711  0.91905170  0.29093809     0.38800
C698        C  0.64071850  0.97829446  0.34701839     0.35700
C699        C  0.66588141  0.99812402  0.22678320     0.36400
C700        C  0.73631508  0.08826385  0.37116969     0.39600
N701        N  0.81743465  0.90745776  0.27919235    -0.38400
N702        N  0.82082362  0.99623141  0.29662182    -0.40000
N703        N  0.60594545  0.90177758  0.34200809    -0.37800
N704        N  0.61072487  0.99046164  0.35770142    -0.40100
N705        N  0.76760392  0.01922559  0.43644250    -0.39900
N706        N  0.75116759  0.10631891  0.40056902    -0.37500
N707        N  0.63635677  0.06333637  0.15985864    -0.38600
N708        N  0.65200641  0.98006075  0.19724241    -0.40300
C709        C  0.79258667  0.72678903  0.57075443    -0.05200
C710        C  0.74519030  0.73046962  0.53804561     0.09000
C711        C  0.70550120  0.71777683  0.54862123    -0.02600
C712        C  0.71287945  0.70307293  0.59285732    -0.00800
C713        C  0.76006535  0.70018386  0.62603018    -0.04500
C714        C  0.80000268  0.71130287  0.61428311     0.02600
C715        C  0.73723468  0.74696296  0.49174842     0.09400
C716        C  0.65703819  0.72019168  0.51416472     0.35300
C717        C  0.84858435  0.70786794  0.64811731     0.38700
C718        C  0.74857069  0.73310450  0.45376264    -0.04800
C719        C  0.74059210  0.74806779  0.40970391     0.02300
C720        C  0.71998360  0.77730514  0.40254821    -0.04400
C721        C  0.70910643  0.79119139  0.44134531    -0.00700
C722        C  0.71815178  0.77616575  0.48572928    -0.03200
C723        C  0.76775619  0.70291406  0.45987923     0.36000
C724        C  0.68895640  0.82106721  0.43623444     0.39700
C725        C  0.75240787  0.73229292  0.37170678     0.38800
C726        C  0.70799717  0.79076641  0.52554996     0.35700
C727        C  0.83354508  0.73976526  0.56025045     0.36400
C728        C  0.67193288  0.69137221  0.60488053     0.39600
N729        N  0.76211694  0.71939450  0.34185859    -0.38400
N730        N  0.78310168  0.67890214  0.46488720    -0.40000
N731        N  0.67263113  0.84482728  0.43214173    -0.37800
N732        N  0.69998139  0.80235681  0.55741968    -0.40100
N733        N  0.61840279  0.72213434  0.48659107    -0.39900
N734        N  0.63944737  0.68196735  0.61471386    -0.37500
N735        N  0.88717087  0.70484430  0.67530573    -0.38600
N736        N  0.86619534  0.75013910  0.55184661    -0.40300
C737        C  0.72949972  0.73949234  0.07281860    -0.05200
C738        C  0.71358342  0.75680724  0.03051079     0.09000
C739        C  0.68779110  0.78342864  0.02993520    -0.02600
C740        C  0.68076732  0.79378609  0.07247249    -0.00800
C741        C  0.69726463  0.77666163  0.11516560    -0.04500
C742        C  0.72018508  0.74897258  0.11469444     0.02600
C743        C  0.72083302  0.74559165  0.98556636     0.09400
C744        C  0.66783319  0.79985121  0.98532418     0.35300
C745        C  0.73580159  0.73068595  0.15767317     0.38700
C746        C  0.69161089  0.72201115  0.96020504    -0.04800
C747        C  0.70055776  0.70927038  0.92021940     0.02300
C748        C  0.73793406  0.72066703  0.90442758    -0.04400
C749        C  0.76563657  0.74530809  0.92823913    -0.00700
C750        C  0.75743854  0.75759161  0.96922802    -0.03200
C751        C  0.65221945  0.71090493  0.97549024     0.36000
C752        C  0.80332928  0.75735617  0.91137271     0.39700
C753        C  0.67065098  0.68457118  0.89522066     0.38800
C754        C  0.78694659  0.78223437  0.99496030     0.35700
C755        C  0.75598069  0.71201902  0.07324187     0.36400
C756        C  0.65647596  0.82210247  0.07190836     0.39600
N757        N  0.64648279  0.66477440  0.87616849    -0.38400
N758        N  0.62087563  0.70220324  0.98788304    -0.40000
N759        N  0.83331315  0.76690606  0.89771160    -0.37800
N760        N  0.81042762  0.80194962  0.01540488    -0.40100
N761        N  0.65156269  0.81282071  0.94967041    -0.39900
N762        N  0.63733841  0.84485062  0.07054632    -0.37500
N763        N  0.74786179  0.71595376  0.19181314    -0.38600
N764        N  0.77709792  0.69014752  0.07338167    -0.40300
C765        C  0.90995753  0.81276492  0.22739594    -0.05200
C766        C  0.93816218  0.79152648  0.25991748     0.09000
C767        C  0.92265372  0.78140295  0.29802154    -0.02600
C768        C  0.87714472  0.79020005  0.30082070    -0.00800
C769        C  0.84719272  0.80985480  0.26625758    -0.04500
C770        C  0.86499141  0.82227730  0.23095875     0.02600
C771        C  0.97967639  0.77611311  0.24987950     0.09400
C772        C  0.95259150  0.76059409  0.33290997     0.35300
C773        C  0.83557114  0.84312581  0.19582307     0.38700
C774        C  0.02637202  0.78902136  0.26278401    -0.04800
C775        C  0.06584789  0.77249351  0.25758913     0.02300
C776        C  0.05890688  0.74280130  0.24018931    -0.04400
C777        C  0.01147251  0.73066439  0.22485089    -0.00700
C778        C  0.97213484  0.74737869  0.22906585    -0.03200
C779        C  0.03408657  0.81880510  0.28318987     0.36000
C780        C  0.00267022  0.70050786  0.20600690     0.39700
C781        C  0.11412754  0.78530666  0.27318190     0.38800
C782        C  0.92370481  0.73459255  0.21335957     0.35700
C783        C  0.92568721  0.82318396  0.18820240     0.36400
C784        C  0.86068789  0.77846867  0.33875705     0.39600
N785        N  0.15270750  0.79547840  0.28556208    -0.38400
N786        N  0.04024309  0.84260739  0.29944521    -0.40000
N787        N  0.99381699  0.67653880  0.19098041    -0.37800
N788        N  0.88507323  0.72449143  0.20099947    -0.40100
N789        N  0.97651499  0.74395939  0.36061298    -0.39900
N790        N  0.84780503  0.76908802  0.36918903    -0.37500
N791        N  0.81231042  0.85981811  0.16776421    -0.38600
N792        N  0.93826818  0.83134136  0.15684614    -0.40300
C793        C  0.47035741  0.75419312  0.23822539    -0.05200
C794        C  0.47649218  0.72664932  0.26227938     0.09000
C795        C  0.52320843  0.71424288  0.28089932    -0.02600
C796        C  0.56406616  0.72979292  0.27707481    -0.00800
C797        C  0.55859002  0.75808541  0.25408673    -0.04500
C798        C  0.51078974  0.76988144  0.23411447     0.02600
C799        C  0.43297081  0.71072106  0.26694595     0.09400
C800        C  0.52909129  0.68549088  0.30460021     0.35300
C801        C  0.50220360  0.79846973  0.20975940     0.38700
C802        C  0.40623150  0.69126605  0.23016761    -0.04800
C803        C  0.36099287  0.68004059  0.23014995     0.02300
C804        C  0.34133624  0.68880880  0.26660411    -0.04400
C805        C  0.37106404  0.70567120  0.30623024    -0.00700
C806        C  0.41636659  0.71679857  0.30604566    -0.03200
C807        C  0.42474431  0.68369297  0.19133959     0.36000
C808        C  0.35573103  0.71104005  0.34777744     0.39700
C809        C  0.33500553  0.65993962  0.19160733     0.38800
C810        C  0.44553474  0.73519790  0.34562586     0.35700
C811        C  0.42191509  0.76654527  0.21790256     0.36400
C812        C  0.61166545  0.71690969  0.29914701     0.39600
N813        N  0.31557006  0.64353542  0.16095901    -0.38400
N814        N  0.43963161  0.67769643  0.16041629    -0.40000
N815        N  0.34372169  0.71502977  0.38120464    -0.37800
N816        N  0.46884787  0.74981888  0.37721859    -0.40100
N817        N  0.53357484  0.66251717  0.32339923    -0.39900
N818        N  0.64925954  0.70615402  0.31702619    -0.37500
N819        N  0.49442052  0.82140858  0.19083428    -0.38600
N820        N  0.38326768  0.77627398  0.20173655    -0.40300
C821        C  0.50615769  0.89207022  0.08291511    -0.05200
C822        C  0.49037665  0.86733555  0.05171016     0.09000
C823        C  0.51009645  0.83889594  0.06648261    -0.02600
C824        C  0.54647751  0.83531862  0.11132006    -0.00800
C825        C  0.56417862  0.86025748  0.14161934    -0.04500
C826        C  0.54312404  0.88850525  0.12787567     0.02600
C827        C  0.45158415  0.87029367  0.00378016     0.09400
C828        C  0.49320721  0.81326522  0.03505536     0.35300
C829        C  0.56021892  0.91383473  0.15959372     0.38700
C830        C  0.46370344  0.87016395  0.96104321    -0.04800
C831        C  0.42728841  0.86633713  0.91579030     0.02300
C832        C  0.37825651  0.86182174  0.91308923    -0.04400
C833        C  0.36606626  0.86533196  0.95613010    -0.00700
C834        C  0.40264973  0.86902227  0.00103055    -0.03200
C835        C  0.51421621  0.87251837  0.96409654     0.36000
C836        C  0.31598275  0.86497093  0.95521241     0.39700
C837        C  0.44117082  0.86642789  0.87265290     0.38800
C838        C  0.39013117  0.86990817  0.04500432     0.35700
C839        C  0.48493010  0.92115869  0.06830399     0.36400
C840        C  0.56509671  0.80565707  0.12639140     0.39600
N841        N  0.45253078  0.86672404  0.83840167    -0.38400
N842        N  0.55457447  0.87425378  0.96672212    -0.40000
N843        N  0.27615727  0.86455827  0.95474097    -0.37800
N844        N  0.38013760  0.87054754  0.08002253    -0.40100
N845        N  0.47987245  0.79293010  0.00980584    -0.39900
N846        N  0.57861587  0.78167861  0.13767189    -0.37500
N847        N  0.57380673  0.93390330  0.18534406    -0.38600
N848        N  0.46786152  0.94436724  0.05661433    -0.40300
loop_ 
_geom_bond_atom_site_label_1 
_geom_bond_atom_site_label_2 
_geom_bond_distance 
_geom_bond_site_symmetry_2 
_ccdc_geom_bond_type 
O1           C16   1.258       .  A
O1           Al9   1.878       .  S
C2           O12   1.257       .  A
C2            O3   1.271       .  A
C2          C825   1.481       .  S
O3           Al5   1.953       .  S
O4            C6   1.253       .  A
O4           Al5   1.871       .  S
Al5          O13   1.910       .  S
Al5          O15   1.945       .  S
Al5          O14   1.786       .  S
C6           O19   1.267       .  A
C6          C797   1.511       .  S
O7           C17   1.262       .  A
O7           Al9   1.906       .  S
O8           C21   1.268       .  A
O8          Al18   1.908       .  S
Al9          O22   1.937       .  S
Al9          O19   1.950       .  S
Al9          O14   1.776       .  S
O10          C17   1.257       .  A
O10         Al18   1.897       .  S
O11          C20   1.259       .  A
O11         Al18   1.908       .  S
O12         Al18   1.864       .  S
O13          C20   1.259       .  A
O14         Al18   1.785       .  S
O15          C16   1.271       .  A
C16         C720   1.506       .  S
C17         C741   1.477       .  S
C20         C692   1.497       .  S
C21          O22   1.270       .  A
C21         C769   1.493       .  S
O23          C38   1.263       .  A
O23         Al31   1.890       .  S
C24          O34   1.256       .  A
C24          O25   1.269       .  A
C24         C832   1.508       .  S
O25         Al27   1.951       .  S
O26          C28   1.261       .  A
O26         Al27   1.900       .  S
Al27         O35   1.903       .  S
Al27         O37   1.935       .  S
Al27         O36   1.782       .  S
C28          O41   1.262       .  A
C28         C629   1.499       .  S
O29          C39   1.260       .  A
O29         Al31   1.898       .  S
O30          C43   1.262       .  A
O30         Al40   1.903       .  S
Al31         O44   1.927       .  S
Al31         O41   1.921       .  S
Al31         O36   1.783       .  S
O32          C39   1.263       .  A
O32         Al40   1.916       .  S
O33          C42   1.262       .  A
O33         Al40   1.920       .  S
O34         Al40   1.868       .  S
O35          C42   1.260       .  A
O36         Al40   1.776       .  S
O37          C38   1.269       .  A
C38         C573   1.493       .  S
C39         C601   1.472       .  S
C42         C552   1.493       .  S
C43          O44   1.266       .  A
C43         C657   1.500       .  S
O45          C60   1.259       .  A
O45         Al53   1.902       .  S
C46          O56   1.263       .  A
C46          O47   1.263       .  A
C46         C517   1.505       .  S
O47         Al49   1.925       .  S
O48          C50   1.258       .  A
O48         Al49   1.881       .  S
Al49         O57   1.896       .  S
Al49         O59   1.906       .  S
Al49         O58   1.784       .  S
C50          O63   1.263       .  A
C50         C748   1.473       .  S
O51          C61   1.260       .  A
O51         Al53   1.907       .  S
O52          C65   1.267       .  A
O52         Al62   1.915       .  S
Al53         O66   1.895       .  S
Al53         O63   1.919       .  S
Al53         O58   1.785       .  S
O54          C61   1.260       .  A
O54         Al62   1.906       .  S
O55          C64   1.267       .  A
O55         Al62   1.938       .  S
O56         Al62   1.910       .  S
O57          C64   1.261       .  A
O58         Al62   1.783       .  S
O59          C60   1.260       .  A
C60         C636   1.501       .  S
C61         C664   1.482       .  S
C64         C489   1.493       .  S
C65          O66   1.261       .  A
C65         C713   1.476       .  S
O67          C82   1.264       .  A
O67         Al75   1.906       .  S
C68          O78   1.263       .  A
C68          O69   1.263       .  A
C68         C524   1.486       .  S
O69         Al71   1.923       .  S
O70          C72   1.254       .  A
O70         Al71   1.879       .  S
Al71         O79   1.896       .  S
Al71         O81   1.915       .  S
Al71         O80   1.786       .  S
C72          O85   1.264       .  A
C72         C608   1.496       .  S
O73          C83   1.266       .  A
O73         Al75   1.928       .  S
O74          C87   1.275       .  A
O74         Al84   1.932       .  S
Al75         O88   1.903       .  S
Al75         O85   1.922       .  S
Al75         O80   1.779       .  S
O76          C83   1.257       .  A
O76         Al84   1.898       .  S
O77          C86   1.263       .  A
O77         Al84   1.931       .  S
O78         Al84   1.904       .  S
O79          C86   1.258       .  A
O80         Al84   1.782       .  S
O81          C82   1.263       .  A
C82         C804   1.505       .  S
C83         C776   1.491       .  S
C86         C461   1.514       .  S
C87          O88   1.265       .  A
C87         C580   1.515       .  S
O89         C104   1.264       .  A
O89         Al97   1.919       .  S
C90         O100   1.270       .  A
C90          O91   1.258       .  A
C90         C440   1.511       .  S
O91         Al93   1.873       .  S
O92          C94   1.260       .  A
O92         Al93   1.906       .  S
Al93        O101   1.908       .  S
Al93        O103   1.917       .  S
Al93        O102   1.779       .  S
C94         O107   1.264       .  A
C94         C356   1.473       .  S
O95         C105   1.260       .  A
O95         Al97   1.922       .  S
O96         C109   1.273       .  A
O96        Al106   1.959       .  S
Al97        O110   1.884       .  S
Al97        O107   1.910       .  S
Al97        O102   1.780       .  S
O98         C105   1.258       .  A
O98        Al106   1.898       .  S
O99         C108   1.262       .  A
O99        Al106   1.917       .  S
O100       Al106   1.954       .  S
O101        C108   1.261       .  A
O102       Al106   1.788       .  S
O103        C104   1.267       .  A
C104        C377   1.496       .  S
C105        C412   1.503       .  S
C108        C685   1.495       .  S
C109        O110   1.263       .  A
C109        C328   1.498       .  S
O111        C126   1.259       .  A
O111       Al119   1.908       .  S
C112        O122   1.262       .  A
C112        O113   1.263       .  A
C112        C433   1.481       .  S
O113       Al115   1.926       .  S
O114        C116   1.256       .  A
O114       Al115   1.872       .  S
Al115       O123   1.897       .  S
Al115       O125   1.918       .  S
Al115       O124   1.787       .  S
C116        O129   1.269       .  A
C116        C237   1.492       .  S
O117        C127   1.261       .  A
O117       Al119   1.920       .  S
O118        C131   1.272       .  A
O118       Al128   1.916       .  S
Al119       O132   1.920       .  S
Al119       O129   1.932       .  S
Al119       O124   1.783       .  S
O120        C127   1.255       .  A
O120       Al128   1.897       .  S
O121        C130   1.266       .  A
O121       Al128   1.941       .  S
O122       Al128   1.905       .  S
O123        C130   1.261       .  A
O124       Al128   1.784       .  S
O125        C126   1.260       .  A
C126        C293   1.488       .  S
C127        C265   1.487       .  S
C130        C545   1.516       .  S
C131        O132   1.268       .  A
C131        C216   1.486       .  S
O133        C148   1.262       .  A
O133       Al141   1.883       .  S
C134        O144   1.258       .  A
C134        O135   1.268       .  A
C134        C188   1.483       .  S
O135       Al137   1.941       .  S
O136        C138   1.250       .  A
O136       Al137   1.872       .  S
Al137       O145   1.902       .  S
Al137       O147   1.955       .  S
Al137       O146   1.778       .  S
C138        O151   1.265       .  A
C138        C300   1.510       .  S
O139        C149   1.269       .  A
O139       Al141   1.927       .  S
O140        C153   1.265       .  A
O140       Al150   1.911       .  S
Al141       O154   1.935       .  S
Al141       O151   1.956       .  S
Al141       O146   1.790       .  S
O142        C149   1.261       .  A
O142       Al150   1.894       .  S
O143        C152   1.258       .  A
O143       Al150   1.907       .  S
O144       Al150   1.883       .  S
O145        C152   1.258       .  A
O146       Al150   1.779       .  S
O147        C148   1.273       .  A
C148        C321   1.494       .  S
C149        C349   1.501       .  S
C152        C496   1.486       .  S
C153        O154   1.269       .  A
C153        C272   1.505       .  S
O155        C170   1.257       .  A
O155       Al163   1.881       .  S
C156        O166   1.256       .  A
C156        O157   1.270       .  A
C156        C181   1.505       .  S
O157       Al159   1.956       .  S
O158        C160   1.260       .  A
O158       Al159   1.898       .  S
Al159       O167   1.920       .  S
Al159       O169   1.961       .  S
Al159       O168   1.788       .  S
C160        O173   1.266       .  A
C160        C384   1.499       .  S
O161        C171   1.262       .  A
O161       Al163   1.903       .  S
O162        C175   1.264       .  A
O162       Al172   1.909       .  S
Al163       O176   1.918       .  S
Al163       O173   1.944       .  S
Al163       O168   1.781       .  S
O164        C171   1.259       .  A
O164       Al172   1.896       .  S
O165        C174   1.263       .  A
O165       Al172   1.912       .  S
O166       Al172   1.872       .  S
O167        C174   1.264       .  A
O168       Al172   1.780       .  S
O169        C170   1.272       .  A
C170        C209   1.507       .  S
C171        C244   1.472       .  S
C174        C468   1.500       .  S
C175        O176   1.263       .  A
C175        C405   1.483       .  S
C177        C178   1.407   1_455  A
C177        C182   1.410       .  A
C177        C195   1.452   1_554  S
C178        C183   1.501   1_554  S
C178        C179   1.411       .  A
C179        C180   1.417   1_655  A
C179        C184   1.450       .  S
C180        C181   1.420       .  A
C180        C196   1.450   1_455  S
C181        C182   1.425       .  A
C182        C185   1.453       .  S
C183        C186   1.411       .  A
C183        C190   1.413       .  A
C184        N201   1.157       .  T
C185        N203   1.157       .  T
C186        C187   1.410       .  A
C186        C191   1.452       .  S
C187        C188   1.412       .  A
C187        C193   1.450       .  S
C188        C189   1.411       .  A
C189        C190   1.417       .  A
C189        C192   1.450       .  S
C190        C194   1.449       .  S
C191        N198   1.157   1_556  T
C192        N199   1.157       .  T
C193        N197   1.156       .  T
C194        N200   1.157   1_556  T
C195        N204   1.157       .  T
C196        N202   1.158       .  T
C205        C206   1.409       .  A
C205        C210   1.411       .  A
C205        C223   1.453       .  S
C206        C211   1.507       .  S
C206        C207   1.413       .  A
C207        C208   1.418       .  A
C207        C212   1.450       .  S
C208        C209   1.419       .  A
C208        C224   1.449       .  S
C209        C210   1.427       .  A
C210        C213   1.454       .  S
C211        C214   1.413       .  A
C211        C218   1.415       .  A
C212        N229   1.157       .  T
C213        N231   1.157       .  T
C214        C215   1.411       .  A
C214        C219   1.451       .  S
C215        C216   1.413       .  A
C215        C221   1.450       .  S
C216        C217   1.412       .  A
C217        C218   1.416       .  A
C217        C220   1.449       .  S
C218        C222   1.450       .  S
C219        N226   1.157       .  T
C220        N227   1.157       .  T
C221        N225   1.157       .  T
C222        N228   1.157       .  T
C223        N232   1.158       .  T
C224        N230   1.158       .  T
C233        C234   1.410   1_556  A
C233        C238   1.412       .  A
C233        C251   1.451       .  S
C234        C239   1.492       .  S
C234        C235   1.406   1_554  A
C235        C236   1.407       .  A
C235        C240   1.453   1_556  S
C236        C237   1.423       .  A
C236        C252   1.453       .  S
C237        C238   1.417       .  A
C238        C241   1.450       .  S
C239        C242   1.412       .  A
C239        C246   1.410       .  A
C240        N257   1.157       .  T
C241        N259   1.158       .  T
C242        C243   1.407       .  A
C242        C247   1.450   1_554  S
C243        C244   1.409       .  A
C243        C249   1.450       .  S
C244        C245   1.412       .  A
C245        C246   1.408       .  A
C245        C248   1.450       .  S
C246        C250   1.451       .  S
C247        N254   1.157       .  T
C248        N255   1.157       .  T
C249        N253   1.157       .  T
C250        N256   1.157       .  T
C251        N260   1.157   1_556  T
C252        N258   1.157       .  T
C261        C262   1.413       .  A
C261        C266   1.411       .  A
C261        C279   1.451       .  S
C262        C267   1.505       .  S
C262        C263   1.411       .  A
C263        C264   1.416       .  A
C263        C268   1.449       .  S
C264        C265   1.416       .  A
C264        C280   1.450       .  S
C265        C266   1.412       .  A
C266        C269   1.449       .  S
C267        C270   1.411       .  A
C267        C274   1.410       .  A
C268        N285   1.157       .  T
C269        N287   1.157       .  T
C270        C271   1.412       .  A
C270        C275   1.450       .  S
C271        C272   1.418       .  A
C271        C277   1.451       .  S
C272        C273   1.422       .  A
C273        C274   1.417       .  A
C273        C276   1.451       .  S
C274        C278   1.450       .  S
C275        N282   1.157       .  T
C276        N283   1.157       .  T
C277        N281   1.158       .  T
C278        N284   1.157       .  T
C279        N288   1.157       .  T
C280        N286   1.157       .  T
C289        C290   1.411       .  A
C289        C294   1.405       .  A
C289        C307   1.453       .  S
C290        C295   1.506   1_455  S
C290        C291   1.416       .  A
C291        C292   1.420       .  A
C291        C296   1.448   1_455  S
C292        C293   1.413       .  A
C292        C308   1.448       .  S
C293        C294   1.412       .  A
C294        C297   1.447       .  S
C295        C298   1.408       .  A
C295        C302   1.412       .  A
C296        N313   1.157       .  T
C297        N315   1.156       .  T
C298        C299   1.407       .  A
C298        C303   1.456   1_655  S
C299        C300   1.429       .  A
C299        C305   1.454       .  S
C300        C301   1.421       .  A
C301        C302   1.421       .  A
C301        C304   1.449       .  S
C302        C306   1.449       .  S
C303        N310   1.157       .  T
C304        N311   1.157       .  T
C305        N309   1.158       .  T
C306        N312   1.158       .  T
C307        N316   1.157       .  T
C308        N314   1.157       .  T
C317        C318   1.411       .  A
C317        C322   1.414       .  A
C317        C335   1.450       .  S
C318        C323   1.502       .  S
C318        C319   1.410       .  A
C319        C320   1.413       .  A
C319        C324   1.451       .  S
C320        C321   1.416       .  A
C320        C336   1.447       .  S
C321        C322   1.417       .  A
C322        C325   1.451       .  S
C323        C326   1.406       .  A
C323        C330   1.413       .  A
C324        N341   1.157       .  T
C325        N343   1.158       .  T
C326        C327   1.410       .  A
C326        C331   1.452       .  S
C327        C328   1.423       .  A
C327        C333   1.452       .  S
C328        C329   1.415       .  A
C329        C330   1.418       .  A
C329        C332   1.449       .  S
C330        C334   1.449       .  S
C331        N338   1.157       .  T
C332        N339   1.157       .  T
C333        N337   1.157       .  T
C334        N340   1.157       .  T
C335        N344   1.157       .  T
C336        N342   1.156       .  T
C345        C346   1.404       .  A
C345        C350   1.404       .  A
C345        C363   1.455       .  S
C346        C351   1.496   1_556  S
C346        C347   1.412       .  A
C347        C348   1.417       .  A
C347        C352   1.450       .  S
C348        C349   1.419       .  A
C348        C364   1.449       .  S
C349        C350   1.426       .  A
C350        C353   1.450       .  S
C351        C354   1.413       .  A
C351        C358   1.413       .  A
C352        N369   1.157   1_556  T
C353        N371   1.155       .  T
C354        C355   1.408       .  A
C354        C359   1.452   1_554  S
C355        C356   1.408       .  A
C355        C361   1.448       .  S
C356        C357   1.410       .  A
C357        C358   1.410       .  A
C357        C360   1.451       .  S
C358        C362   1.450       .  S
C359        N366   1.157       .  T
C360        N367   1.157       .  T
C361        N365   1.156       .  T
C362        N368   1.157       .  T
C363        N372   1.157       .  T
C364        N370   1.157       .  T
C373        C374   1.413       .  A
C373        C378   1.414       .  A
C373        C391   1.450       .  S
C374        C379   1.508       .  S
C374        C375   1.412       .  A
C375        C376   1.415       .  A
C375        C380   1.451       .  S
C376        C377   1.418       .  A
C376        C392   1.450       .  S
C377        C378   1.416       .  A
C378        C381   1.452       .  S
C379        C382   1.411   1_655  A
C379        C386   1.413       .  A
C380        N397   1.157       .  T
C381        N399   1.157       .  T
C382        C383   1.416       .  A
C382        C387   1.451       .  S
C383        C384   1.418       .  A
C383        C389   1.446       .  S
C384        C385   1.415       .  A
C385        C386   1.414   1_455  A
C385        C388   1.450       .  S
C386        C390   1.449       .  S
C387        N394   1.157       .  T
C388        N395   1.157       .  T
C389        N393   1.156       .  T
C390        N396   1.157       .  T
C391        N400   1.157       .  T
C392        N398   1.158       .  T
C401        C402   1.411       .  A
C401        C406   1.411       .  A
C401        C419   1.451       .  S
C402        C407   1.503       .  S
C402        C403   1.415       .  A
C403        C404   1.413       .  A
C403        C408   1.450       .  S
C404        C405   1.411       .  A
C404        C420   1.450       .  S
C405        C406   1.415       .  A
C406        C409   1.451       .  S
C407        C410   1.411       .  A
C407        C414   1.410       .  A
C408        N425   1.157       .  T
C409        N427   1.157       .  T
C410        C411   1.415       .  A
C410        C415   1.450       .  S
C411        C412   1.421       .  A
C411        C417   1.451       .  S
C412        C413   1.422       .  A
C413        C414   1.409       .  A
C413        C416   1.451       .  S
C414        C418   1.453       .  S
C415        N422   1.157       .  T
C416        N423   1.157       .  T
C417        N421   1.158       .  T
C418        N424   1.157       .  T
C419        N428   1.157       .  T
C420        N426   1.157       .  T
C429        C430   1.411       .  A
C429        C434   1.406       .  A
C429        C447   1.452       .  S
C430        C435   1.500   1_556  S
C430        C431   1.415       .  A
C431        C432   1.415       .  A
C431        C436   1.449       .  S
C432        C433   1.410       .  A
C432        C448   1.450       .  S
C433        C434   1.412       .  A
C434        C437   1.449       .  S
C435        C438   1.411       .  A
C435        C442   1.407       .  A
C436        N453   1.157       .  T
C437        N455   1.156       .  T
C438        C439   1.416       .  A
C438        C443   1.452       .  S
C439        C440   1.421       .  A
C439        C445   1.448       .  S
C440        C441   1.427       .  A
C441        C442   1.410       .  A
C441        C444   1.453       .  S
C442        C446   1.452   1_554  S
C443        N450   1.157       .  T
C444        N451   1.157       .  T
C445        N449   1.157       .  T
C446        N452   1.157       .  T
C447        N456   1.157   1_556  T
C448        N454   1.157       .  T
C457        C458   1.409       .  A
C457        C462   1.415       .  A
C457        C475   1.451       .  S
C458        C463   1.504       .  S
C458        C459   1.408       .  A
C459        C460   1.416       .  A
C459        C464   1.450       .  S
C460        C461   1.425       .  A
C460        C476   1.451       .  S
C461        C462   1.425       .  A
C462        C465   1.451       .  S
C463        C466   1.408       .  A
C463        C470   1.412       .  A
C464        N481   1.157       .  T
C465        N483   1.158       .  T
C466        C467   1.409       .  A
C466        C471   1.453       .  S
C467        C468   1.420       .  A
C467        C473   1.450       .  S
C468        C469   1.417       .  A
C469        C470   1.420       .  A
C469        C472   1.449       .  S
C470        C474   1.449       .  S
C471        N478   1.157       .  T
C472        N479   1.157       .  T
C473        N477   1.156       .  T
C474        N480   1.157       .  T
C475        N484   1.157       .  T
C476        N482   1.158       .  T
C485        C486   1.413       .  A
C485        C490   1.416       .  A
C485        C503   1.449       .  S
C486        C491   1.504       .  S
C486        C487   1.412       .  A
C487        C488   1.411       .  A
C487        C492   1.452       .  S
C488        C489   1.417       .  A
C488        C504   1.452       .  S
C489        C490   1.415       .  A
C490        C493   1.450       .  S
C491        C494   1.413       .  A
C491        C498   1.414       .  A
C492        N509   1.157       .  T
C493        N511   1.157       .  T
C494        C495   1.412       .  A
C494        C499   1.451       .  S
C495        C496   1.414       .  A
C495        C501   1.451       .  S
C496        C497   1.411       .  A
C497        C498   1.414       .  A
C497        C500   1.450       .  S
C498        C502   1.449       .  S
C499        N506   1.157       .  T
C500        N507   1.157       .  T
C501        N505   1.157       .  T
C502        N508   1.157       .  T
C503        N512   1.157       .  T
C504        N510   1.157       .  T
C513        C514   1.407       .  A
C513        C518   1.412       .  A
C513        C531   1.452   1_556  S
C514        C519   1.499   1_556  S
C514        C515   1.409       .  A
C515        C516   1.414       .  A
C515        C520   1.451   1_655  S
C516        C517   1.421       .  A
C516        C532   1.451       .  S
C517        C518   1.426       .  A
C518        C521   1.452       .  S
C519        C522   1.413   1_655  A
C519        C526   1.408   1_655  A
C520        N537   1.157       .  T
C521        N539   1.157       .  T
C522        C523   1.416       .  A
C522        C527   1.448   1_455  S
C523        C524   1.412       .  A
C523        C529   1.449       .  S
C524        C525   1.417       .  A
C525        C526   1.407       .  A
C525        C528   1.448       .  S
C526        C530   1.453   1_455  S
C527        N534   1.157       .  T
C528        N535   1.156       .  T
C529        N533   1.157       .  T
C530        N536   1.157       .  T
C531        N540   1.157       .  T
C532        N538   1.158       .  T
C541        C542   1.408       .  A
C541        C546   1.416       .  A
C541        C559   1.451       .  S
C542        C547   1.504   1_545  S
C542        C543   1.408       .  A
C543        C544   1.414       .  A
C543        C548   1.451       .  S
C544        C545   1.426       .  A
C544        C560   1.452       .  S
C545        C546   1.427       .  A
C546        C549   1.451       .  S
C547        C550   1.411       .  A
C547        C554   1.412       .  A
C548        N565   1.157       .  T
C549        N567   1.158       .  T
C550        C551   1.411       .  A
C550        C555   1.452       .  S
C551        C552   1.417       .  A
C551        C557   1.451       .  S
C552        C553   1.415       .  A
C553        C554   1.417       .  A
C553        C556   1.450       .  S
C554        C558   1.449       .  S
C555        N562   1.157   1_565  T
C556        N563   1.157       .  T
C557        N561   1.157       .  T
C558        N564   1.157       .  T
C559        N568   1.157   1_545  T
C560        N566   1.157       .  T
C569        C570   1.413       .  A
C569        C574   1.414       .  A
C569        C587   1.451       .  S
C570        C575   1.505       .  S
C570        C571   1.413       .  A
C571        C572   1.411       .  A
C571        C576   1.452       .  S
C572        C573   1.417       .  A
C572        C588   1.452       .  S
C573        C574   1.416       .  A
C574        C577   1.451       .  S
C575        C578   1.407       .  A
C575        C582   1.412       .  A
C576        N593   1.157       .  T
C577        N595   1.157       .  T
C578        C579   1.410       .  A
C578        C583   1.454       .  S
C579        C580   1.432       .  A
C579        C585   1.453       .  S
C580        C581   1.424       .  A
C581        C582   1.418       .  A
C581        C584   1.450       .  S
C582        C586   1.451       .  S
C583        N590   1.157       .  T
C584        N591   1.158       .  T
C585        N589   1.158       .  T
C586        N592   1.157       .  T
C587        N596   1.157       .  T
C588        N594   1.157       .  T
C597        C598   1.412       .  A
C597        C602   1.408       .  A
C597        C615   1.451       .  S
C598        C603   1.494   1_556  S
C598        C599   1.412       .  A
C599        C600   1.410       .  A
C599        C604   1.451   1_556  S
C600        C601   1.410       .  A
C600        C616   1.450       .  S
C601        C602   1.410       .  A
C602        C605   1.451       .  S
C603        C606   1.406       .  A
C603        C610   1.411       .  A
C604        N621   1.157       .  T
C605        N623   1.157       .  T
C606        C607   1.409       .  A
C606        C611   1.453       .  S
C607        C608   1.425       .  A
C607        C613   1.451       .  S
C608        C609   1.417       .  A
C609        C610   1.410       .  A
C609        C612   1.452       .  S
C610        C614   1.451       .  S
C611        N618   1.157   1_554  T
C612        N619   1.157       .  T
C613        N617   1.158       .  T
C614        N620   1.158       .  T
C615        N624   1.158       .  T
C616        N622   1.157       .  T
C625        C626   1.410       .  A
C625        C630   1.412       .  A
C625        C643   1.452       .  S
C626        C631   1.499       .  S
C626        C627   1.409       .  A
C627        C628   1.413       .  A
C627        C632   1.451       .  S
C628        C629   1.422       .  A
C628        C644   1.452       .  S
C629        C630   1.418       .  A
C630        C633   1.451       .  S
C631        C634   1.408       .  A
C631        C638   1.410       .  A
C632        N649   1.157       .  T
C633        N651   1.157       .  T
C634        C635   1.412       .  A
C634        C639   1.450       .  S
C635        C636   1.421       .  A
C635        C641   1.452       .  S
C636        C637   1.422       .  A
C637        C638   1.412       .  A
C637        C640   1.451       .  S
C638        C642   1.452       .  S
C639        N646   1.157       .  T
C640        N647   1.158       .  T
C641        N645   1.157       .  T
C642        N648   1.157       .  T
C643        N652   1.157       .  T
C644        N650   1.157       .  T
C653        C654   1.410       .  A
C653        C658   1.411       .  A
C653        C671   1.450       .  S
C654        C659   1.500   1_455  S
C654        C655   1.408       .  A
C655        C656   1.414       .  A
C655        C660   1.451       .  S
C656        C657   1.423       .  A
C656        C672   1.450       .  S
C657        C658   1.417       .  A
C658        C661   1.452       .  S
C659        C662   1.412       .  A
C659        C666   1.410       .  A
C660        N677   1.157       .  T
C661        N679   1.157       .  T
C662        C663   1.411       .  A
C662        C667   1.448   1_655  S
C663        C664   1.410       .  A
C663        C669   1.450       .  S
C664        C665   1.414       .  A
C665        C666   1.413       .  A
C665        C668   1.450       .  S
C666        C670   1.449       .  S
C667        N674   1.156       .  T
C668        N675   1.157       .  T
C669        N673   1.157       .  T
C670        N676   1.157       .  T
C671        N680   1.157   1_455  T
C672        N678   1.158       .  T
C681        C682   1.408       .  A
C681        C686   1.406       .  A
C681        C699   1.453   1_545  S
C682        C687   1.502   1_545  S
C682        C683   1.413       .  A
C683        C684   1.421       .  A
C683        C688   1.449       .  S
C684        C685   1.416       .  A
C684        C700   1.448       .  S
C685        C686   1.418       .  A
C686        C689   1.450       .  S
C687        C690   1.410       .  A
C687        C694   1.411       .  A
C688        N705   1.157       .  T
C689        N707   1.156       .  T
C690        C691   1.412       .  A
C690        C695   1.451       .  S
C691        C692   1.417       .  A
C691        C697   1.451       .  S
C692        C693   1.419       .  A
C693        C694   1.416       .  A
C693        C696   1.450       .  S
C694        C698   1.450       .  S
C695        N702   1.157       .  T
C696        N703   1.157       .  T
C697        N701   1.157       .  T
C698        N704   1.157       .  T
C699        N708   1.157       .  T
C700        N706   1.157       .  T
C709        C710   1.413       .  A
C709        C714   1.410       .  A
C709        C727   1.451       .  S
C710        C715   1.500       .  S
C710        C711   1.413       .  A
C711        C712   1.411       .  A
C711        C716   1.450       .  S
C712        C713   1.410       .  A
C712        C728   1.451       .  S
C713        C714   1.410       .  A
C714        C717   1.450       .  S
C715        C718   1.405       .  A
C715        C722   1.411       .  A
C716        N733   1.157       .  T
C717        N735   1.157       .  T
C718        C719   1.410       .  A
C718        C723   1.454       .  S
C719        C720   1.429       .  A
C719        C725   1.452       .  S
C720        C721   1.420       .  A
C721        C722   1.416       .  A
C721        C724   1.451       .  S
C722        C726   1.450       .  S
C723        N730   1.157       .  T
C724        N731   1.157       .  T
C725        N729   1.158       .  T
C726        N732   1.157       .  T
C727        N736   1.157       .  T
C728        N734   1.157       .  T
C737        C738   1.412       .  A
C737        C742   1.407       .  A
C737        C755   1.452       .  S
C738        C743   1.489   1_554  S
C738        C739   1.408       .  A
C739        C740   1.407       .  A
C739        C744   1.451   1_554  S
C740        C741   1.416       .  A
C740        C756   1.451       .  S
C741        C742   1.412       .  A
C742        C745   1.451       .  S
C743        C746   1.407       .  A
C743        C750   1.413       .  A
C744        N761   1.157       .  T
C745        N763   1.157       .  T
C746        C747   1.403       .  A
C746        C751   1.452       .  S
C747        C748   1.413       .  A
C747        C753   1.450       .  S
C748        C749   1.410       .  A
C749        C750   1.411       .  A
C749        C752   1.451       .  S
C750        C754   1.450       .  S
C751        N758   1.157       .  T
C752        N759   1.158       .  T
C753        N757   1.156       .  T
C754        N760   1.157   1_556  T
C755        N764   1.157       .  T
C756        N762   1.157       .  T
C765        C766   1.410       .  A
C765        C770   1.415       .  A
C765        C783   1.450       .  S
C766        C771   1.504       .  S
C766        C767   1.413       .  A
C767        C768   1.413       .  A
C767        C772   1.451       .  S
C768        C769   1.413       .  A
C768        C784   1.450       .  S
C769        C770   1.418       .  A
C770        C773   1.450       .  S
C771        C774   1.413   1_655  A
C771        C778   1.410       .  A
C772        N789   1.157       .  T
C773        N791   1.157       .  T
C774        C775   1.418       .  A
C774        C779   1.449       .  S
C775        C776   1.415       .  A
C775        C781   1.450       .  S
C776        C777   1.417       .  A
C777        C778   1.409   1_455  A
C777        C780   1.450       .  S
C778        C782   1.453       .  S
C779        N786   1.157       .  T
C780        N787   1.157   1_455  T
C781        N785   1.157       .  T
C782        N788   1.157       .  T
C783        N792   1.157       .  T
C784        N790   1.157       .  T
C793        C794   1.407       .  A
C793        C798   1.412       .  A
C793        C811   1.453       .  S
C794        C799   1.502       .  S
C794        C795   1.408       .  A
C795        C796   1.417       .  A
C795        C800   1.450       .  S
C796        C797   1.423       .  A
C796        C812   1.448       .  S
C797        C798   1.427       .  A
C798        C801   1.451       .  S
C799        C802   1.407       .  A
C799        C806   1.410       .  A
C800        N817   1.157       .  T
C801        N819   1.157       .  T
C802        C803   1.413       .  A
C802        C807   1.451       .  S
C803        C804   1.424       .  A
C803        C809   1.450       .  S
C804        C805   1.419       .  A
C805        C806   1.415       .  A
C805        C808   1.449       .  S
C806        C810   1.450       .  S
C807        N814   1.158       .  T
C808        N815   1.158       .  T
C809        N813   1.155       .  T
C810        N816   1.156       .  T
C811        N820   1.157       .  T
C812        N818   1.156       .  T
C821        C822   1.414       .  A
C821        C826   1.416       .  A
C821        C839   1.449       .  S
C822        C827   1.497       .  S
C822        C823   1.409       .  A
C823        C824   1.406       .  A
C823        C828   1.453       .  S
C824        C825   1.415       .  A
C824        C840   1.451       .  S
C825        C826   1.409       .  A
C826        C829   1.447       .  S
C827        C830   1.411   1_554  A
C827        C834   1.405       .  A
C828        N845   1.157       .  T
C829        N847   1.157       .  T
C830        C831   1.415       .  A
C830        C835   1.451       .  S
C831        C832   1.421       .  A
C831        C837   1.450       .  S
C832        C833   1.429       .  A
C833        C834   1.409   1_556  A
C833        C836   1.453       .  S
C834        C838   1.453       .  S
C835        N842   1.157       .  T
C836        N843   1.158       .  T
C837        N841   1.157       .  T
C838        N844   1.157       .  T
C839        N848   1.157       .  T
C840        N846   1.157       .  T
