geometry optimzed in LAMMPS
_audit_creation_date              2020-12-01 
_audit_creation_method            'lammps2cif' 
_symmetry_space_group_name_H-M    'P1' 
_symmetry_Int_Tables_number       1 
_symmetry_cell_setting            triclinic 
loop_ 
_symmetry_equiv_pos_as_xyz 
  x,y,z 
_cell_length_a                    41.67071466 
_cell_length_b                    37.31909725146927 
_cell_length_c                    90.74305550726635 
_cell_angle_alpha                 90.01362016290331 
_cell_angle_beta                  89.98702132009309 
_cell_angle_gamma                 90.05552100811484 
loop_ 
_atom_site_label 
_atom_site_type_symbol 
_atom_site_fract_x 
_atom_site_fract_y 
_atom_site_fract_z 
_atom_site_charge 
O1          O  0.90110018  0.17764317  0.47306849    -0.82200
C2          C  0.01508148  0.17077083  0.43954814     0.97100
O3          O  0.99178407  0.14923397  0.43816306    -0.71400
O4          O  0.98073761  0.12617666  0.46452209    -0.74900
Al5        Al  0.95361914  0.14480405  0.45004193     1.49000
C6          C  0.97481637  0.12614059  0.47809301     0.92400
O7          O  0.98359882  0.21535898  0.48179902    -0.81200
O8          O  0.93167107  0.24976313  0.44845719    -0.74700
Al9        Al  0.94300644  0.19623899  0.47622565     1.90100
O10         O  0.98947615  0.25100141  0.46283390    -0.73800
O11         O  0.95379818  0.20692458  0.42823436    -0.73600
O12         O  0.01045957  0.20206839  0.44431907    -0.79300
O13         O  0.92636752  0.15909817  0.43449798    -0.77500
O14         O  0.95537936  0.18850426  0.45770470    -1.13600
O15         O  0.91567973  0.12999141  0.46067299    -0.72800
C16         C  0.89570420  0.14592322  0.46890671     0.97900
C17         C  0.99646152  0.24242260  0.47593235     0.94300
Al18       Al  0.97019170  0.22443947  0.44680663     1.55600
O19         O  0.95765124  0.15048575  0.48379872    -0.77500
C20         C  0.93282940  0.18339323  0.42531844     0.98400
C21         C  0.91968521  0.26018087  0.46044968     0.93300
O22         O  0.92545443  0.24352271  0.47236386    -0.82800
O23         O  0.84765267  0.17649104  0.27928175    -0.82200
C24         C  0.73746638  0.17027255  0.31493324     0.97100
O25         O  0.76088914  0.14886491  0.31624837    -0.71400
O26         O  0.77017628  0.12415255  0.29005783    -0.74900
Al27       Al  0.79831064  0.14414575  0.30377280     1.49000
C28         C  0.77355223  0.12435285  0.27631458     0.92400
O29         O  0.76462468  0.21299973  0.27216755    -0.81200
O30         O  0.82000735  0.24922214  0.30401212    -0.74700
Al31       Al  0.80559885  0.19445912  0.27694709     1.90100
O32         O  0.76108773  0.25008700  0.29073404    -0.73800
O33         O  0.79919113  0.20722086  0.32507060    -0.73600
O34         O  0.74179701  0.20138091  0.30986409    -0.79300
O35         O  0.82670138  0.15961530  0.31873217    -0.77500
O36         O  0.79540933  0.18748106  0.29575868    -1.13600
O37         O  0.83551182  0.12923611  0.29247206    -0.72800
C38         C  0.85399342  0.14509987  0.28348477     0.97900
C39         C  0.75317222  0.24103684  0.27779772     0.94300
Al40       Al  0.78158279  0.22391582  0.30660845     1.55600
O41         O  0.78996632  0.14858025  0.27007170    -0.77500
C42         C  0.82026236  0.18383978  0.32795066     0.98400
C43         C  0.83032570  0.25932459  0.29162568     0.93300
O44         O  0.82339249  0.24197416  0.28001187    -0.82800
O45         O  0.57861222  0.76926705  0.02564172    -0.82200
C46         C  0.48906340  0.83512491  0.06076510     0.97100
O47         O  0.49406607  0.80438687  0.05543575    -0.71400
O48         O  0.51590379  0.75855342  0.03583900    -0.74900
Al49       Al  0.53496661  0.78364095  0.05213403     1.49000
C50         C  0.50826338  0.76776125  0.02290067     0.92400
O51         O  0.54457033  0.86174395  0.01659125    -0.81200
O52         O  0.58700190  0.88077163  0.03991577    -0.74700
Al53       Al  0.56017357  0.81595756  0.02303501     1.90100
O54         O  0.52197997  0.88436715  0.03634669    -0.73800
O55         O  0.57764962  0.84812842  0.06532953    -0.73600
O56         O  0.51199705  0.85710524  0.06226787    -0.79300
O57         O  0.55108963  0.79947421  0.07099517    -0.77500
O58         O  0.54833522  0.82122605  0.04178950    -1.13600
O59         O  0.57439980  0.75994945  0.04951886    -0.72800
C60         C  0.58582348  0.75170805  0.03709191     0.97900
C61         C  0.52776158  0.88562515  0.02275666     0.94300
Al62       Al  0.54968579  0.86394019  0.05032594     1.55600
O63         O  0.51988537  0.79597430  0.01735908    -0.77500
C64         C  0.57123183  0.82348641  0.07435184     0.98400
C65         C  0.60696880  0.86637621  0.03124580     0.93300
O66         O  0.60184976  0.83526769  0.02629670    -0.82800
O67         O  0.66575193  0.77877361  0.22231524    -0.82200
C68         C  0.75286448  0.84972340  0.18687309     0.97100
O69         O  0.74862157  0.81889046  0.19219808    -0.71400
O70         O  0.72912883  0.77208093  0.21194476    -0.74900
Al71       Al  0.70863092  0.79679339  0.19581856     1.49000
C72         C  0.73623163  0.78110321  0.22498894     0.92400
O73         O  0.69769834  0.87345798  0.23187518    -0.81200
O74         O  0.65507617  0.89216891  0.20895346    -0.74700
Al75       Al  0.68297848  0.82695675  0.22507457     1.90100
O76         O  0.72014577  0.89640628  0.21216330    -0.73800
O77         O  0.66422560  0.86127499  0.18316438    -0.73600
O78         O  0.72970474  0.87148128  0.18588923    -0.79300
O79         O  0.69066100  0.81239539  0.17739946    -0.77500
O80         O  0.69465297  0.83347427  0.20637708    -1.13600
O81         O  0.67035086  0.77170518  0.19844569    -0.72800
C82         C  0.66022334  0.76085403  0.21070958     0.97900
C83         C  0.71486774  0.89732585  0.22579962     0.94300
Al84       Al  0.69235836  0.87667711  0.19817297     1.55600
O85         O  0.72375941  0.80859399  0.23070079    -0.77500
C86         C  0.66971521  0.83578732  0.17443613     0.98400
C87         C  0.63544359  0.87604282  0.21726084     0.93300
O88         O  0.64118413  0.84455644  0.22157648    -0.82800
O89         O  0.34949048  0.17061269  0.77785479    -0.82200
C90         C  0.23846627  0.16485982  0.81359776     0.97100
O91         O  0.26177124  0.14326255  0.81450666    -0.71400
O92         O  0.27064518  0.11823289  0.78818074    -0.74900
Al93       Al  0.29883573  0.13844299  0.80189656     1.49000
C94         C  0.27604519  0.11695002  0.77457221     0.92400
O95         O  0.26570372  0.20528295  0.76954713    -0.81200
O96         O  0.31953093  0.24384825  0.80134855    -0.74700
Al97       Al  0.30700216  0.18781144  0.77484296     1.90100
O98         O  0.26046777  0.24187565  0.78827294    -0.73800
O99         O  0.30014683  0.20280418  0.82261413    -0.73600
O100        O  0.24236977  0.19545001  0.80804506    -0.79300
O101        O  0.32717849  0.15450148  0.81661687    -0.77500
O102        O  0.29598496  0.18143630  0.79365009    -1.13600
O103        O  0.33596996  0.12331934  0.79077764    -0.72800
C104        C  0.35528096  0.13903088  0.78213283     0.97900
C105        C  0.25283388  0.23242674  0.77535583     0.94300
Al106      Al  0.28176505  0.21799386  0.80424461     1.55600
O107        O  0.29283818  0.14089536  0.76832372    -0.77500
C108        C  0.32118110  0.17949417  0.82552850     0.98400
C109        C  0.32837832  0.25509133  0.78893487     0.93300
O110        O  0.32324258  0.23652762  0.77744424    -0.82800
O111        O  0.40304171  0.17010117  0.96963841    -0.82200
C112        C  0.51456714  0.16313608  0.93422483     0.97100
O113        O  0.49097670  0.14189122  0.93363270    -0.71400
O114        O  0.48198216  0.11686928  0.96016732    -0.74900
Al115      Al  0.45412145  0.13744222  0.94623601     1.49000
C116        C  0.47608694  0.11608765  0.97377337     0.92400
O117        O  0.48614417  0.20383433  0.97888386    -0.81200
O118        O  0.43499725  0.24421067  0.94678921    -0.74700
Al119      Al  0.44534798  0.18681618  0.97312534     1.90100
O120        O  0.49365561  0.24019839  0.96023897    -0.73800
O121        O  0.45360252  0.20215603  0.92556751    -0.73600
O122        O  0.51156719  0.19368759  0.93996922    -0.79300
O123        O  0.42614358  0.15397585  0.93152221    -0.77500
O124        O  0.45725122  0.18051370  0.95445271    -1.13600
O125        O  0.41685282  0.12230613  0.95720144    -0.72800
C126        C  0.39737317  0.13835782  0.96561326     0.97900
C127        C  0.49957794  0.23094277  0.97338924     0.94300
Al128      Al  0.47232277  0.21704513  0.94397485     1.55600
O129        O  0.45903241  0.14012566  0.97974561    -0.77500
C130        C  0.43232090  0.17900074  0.92263413     0.98400
C131        C  0.42371133  0.25356797  0.95906562     0.93300
O132        O  0.42917400  0.23509895  0.97050311    -0.82800
O133        O  0.17296855  0.76820907  0.72215292    -0.82200
C134        C  0.25897318  0.84063168  0.68681087     0.97100
O135        O  0.25474149  0.80973699  0.69200484    -0.71400
O136        O  0.23644904  0.76285502  0.71171758    -0.74900
Al137      Al  0.21517629  0.78752180  0.69571359     1.49000
C138        C  0.24355922  0.77181239  0.72480174     0.92400
O139        O  0.20273644  0.86219474  0.73259323    -0.81200
O140        O  0.16131251  0.88150948  0.70966502    -0.74700
Al141      Al  0.18912297  0.81610266  0.72523836     1.90100
O142        O  0.22654816  0.88602477  0.71341891    -0.73800
O143        O  0.17162146  0.85350824  0.68344326    -0.73600
O144        O  0.23641258  0.86320258  0.68674284    -0.79300
O145        O  0.19697325  0.80410885  0.67741036    -0.77500
O146        O  0.20105241  0.82364296  0.70659071    -1.13600
O147        O  0.17720511  0.76158635  0.69826915    -0.72800
C148        C  0.16722985  0.75059748  0.71053932     0.97900
C149        C  0.22058326  0.88601023  0.72700493     0.94300
Al150      Al  0.19903141  0.86739339  0.69893711     1.55600
O151        O  0.23003592  0.79836894  0.73075050    -0.77500
C152        C  0.17734056  0.82886124  0.67433355     0.98400
C153        C  0.14127138  0.86476471  0.71758533     0.93300
O154        O  0.14703446  0.83316331  0.72176800    -0.82800
O155        O  0.07670308  0.77631163  0.52929200    -0.82200
C156        C  0.98338516  0.84289329  0.56226289     0.97100
O157        O  0.98993719  0.81225252  0.55736796    -0.71400
O158        O  0.01252162  0.76680710  0.53839897    -0.74900
Al159      Al  0.03086143  0.79236182  0.55482348     1.49000
C160        C  0.00561506  0.77614209  0.52536525     0.92400
O161        O  0.04258940  0.86918647  0.51879982    -0.81200
O162        O  0.08143830  0.89054710  0.54239752    -0.74700
Al163      Al  0.05811407  0.82355715  0.52606466     1.90100
O164        O  0.01627316  0.89076854  0.53773090    -0.73800
O165        O  0.07075593  0.85994040  0.56813214    -0.73600
O166        O  0.00532229  0.86596399  0.56395440    -0.79300
O167        O  0.04641834  0.80949408  0.57357597    -0.77500
O168        O  0.04435607  0.82964925  0.54445733    -1.13600
O169        O  0.07025981  0.76864770  0.55304113    -0.72800
C170        C  0.08230399  0.75877066  0.54098445     0.97900
C171        C  0.02354795  0.89202334  0.52429900     0.94300
Al172      Al  0.04361360  0.87316408  0.55244950     1.55600
O173        O  0.01860932  0.80344084  0.51973596    -0.77500
C174        C  0.06582364  0.83436413  0.57689962     0.98400
C175        C  0.10284869  0.87525238  0.53474658     0.93300
O176        O  0.09886438  0.84339131  0.53039130    -0.82800
O177        O  0.17584909  0.98719565  0.02606591    -0.82200
C178        C  0.26233658  0.91676142  0.06179217     0.97100
O179        O  0.25797815  0.94774106  0.05665164    -0.71400
O180        O  0.23925878  0.99481147  0.03700445    -0.74900
Al181      Al  0.21807378  0.96991935  0.05292828     1.49000
C182        C  0.24722201  0.98542244  0.02411606     0.92400
O183        O  0.20927205  0.89320511  0.01681910    -0.81200
O184        O  0.16491061  0.87421602  0.03927465    -0.74700
Al185      Al  0.19379055  0.93940727  0.02338198     1.90100
O186        O  0.23024540  0.87020460  0.03684385    -0.73800
O187        O  0.17301655  0.90555978  0.06525390    -0.73600
O188        O  0.23890461  0.89535388  0.06307881    -0.79300
O189        O  0.19941590  0.95419618  0.07136949    -0.77500
O190        O  0.20435125  0.93314055  0.04224799    -1.13600
O191        O  0.17995304  0.99517116  0.04996801    -0.72800
C192        C  0.16903547  0.00472826  0.03763858     0.97900
C193        C  0.22576445  0.86923088  0.02316360     0.94300
Al194      Al  0.20180064  0.89002498  0.05048863     1.55600
O195        O  0.23472251  0.95807255  0.01833066    -0.77500
C196        C  0.17824308  0.93079282  0.07417265     0.98400
C197        C  0.14594897  0.88949897  0.03036338     0.93300
O198        O  0.15173360  0.92097329  0.02599963    -0.82800
O199        O  0.06984616  0.99181583  0.21925682    -0.82200
C200        C  0.98032518  0.92429925  0.18465218     0.97100
O201        O  0.98557444  0.95484466  0.19005018    -0.71400
O202        O  0.00664897  0.00115197  0.20962023    -0.74900
Al203      Al  0.02595557  0.97594613  0.19314126     1.49000
C204        C  0.99967045  0.99172727  0.22265095     0.92400
O205        O  0.03688841  0.89845431  0.22890053    -0.81200
O206        O  0.07905664  0.87909293  0.20575712    -0.74700
Al207      Al  0.05200859  0.94452522  0.22212366     1.90100
O208        O  0.01367174  0.87573296  0.20933664    -0.73800
O209        O  0.06864741  0.91095262  0.17982275    -0.73600
O210        O  0.00298119  0.90188680  0.18329534    -0.79300
O211        O  0.04230782  0.95993831  0.17426027    -0.77500
O212        O  0.03980488  0.93865549  0.20348343    -1.13600
O213        O  0.06489004  0.00026951  0.19543162    -0.72800
C214        C  0.07598321  0.00974906  0.20773544     0.97900
C215        C  0.01946948  0.87474312  0.22292070     0.94300
Al216      Al  0.04115572  0.89558607  0.19515971     1.55600
O217        O  0.01174515  0.96360506  0.22799036    -0.77500
C218        C  0.06237012  0.93583198  0.17086957     0.98400
C219        C  0.09871657  0.89444073  0.21438086     0.93300
O220        O  0.09353580  0.92613289  0.21856972    -0.82800
O221        O  0.89275009  0.59288949  0.27701220    -0.82200
C222        C  0.00727429  0.60137176  0.31033654     0.97100
O223        O  0.98376660  0.62251835  0.31159099    -0.71400
O224        O  0.97241336  0.64479054  0.28512338    -0.74900
Al225      Al  0.94567793  0.62608400  0.29977558     1.49000
C226        C  0.96671785  0.64416235  0.27151847     0.92400
O227        O  0.97495803  0.55476228  0.26769423    -0.81200
O228        O  0.92535547  0.52037509  0.30150213    -0.74700
Al229      Al  0.93473313  0.57413754  0.27366743     1.90100
O230        O  0.98275443  0.52077579  0.28699448    -0.73800
O231        O  0.94660259  0.56407999  0.32163989    -0.73600
O232        O  0.00320256  0.57004365  0.30551277    -0.79300
O233        O  0.91870195  0.61161320  0.31549432    -0.77500
O234        O  0.94770283  0.58228043  0.29213874    -1.13600
O235        O  0.90789261  0.64048148  0.28927650    -0.72800
C236        C  0.88777123  0.62478773  0.28108734     0.97900
C237        C  0.98824591  0.52804963  0.27360818     0.94300
Al238      Al  0.96326682  0.54682328  0.30304790     1.55600
O239        O  0.94936227  0.61974389  0.26595206    -0.77500
C240        C  0.92551993  0.58739306  0.32466598     0.98400
C241        C  0.91368706  0.50919261  0.28956134     0.93300
O242        O  0.91775605  0.52663057  0.27769463    -0.82800
O243        O  0.84978086  0.59142427  0.47106254    -0.82200
C244        C  0.73689531  0.59454380  0.43763674     0.97100
O245        O  0.75972813  0.61665322  0.43610351    -0.71400
O246        O  0.76970597  0.64192987  0.46224237    -0.74900
Al247      Al  0.79749752  0.62289509  0.44801424     1.49000
C248        C  0.77518317  0.64283333  0.47585355     0.92400
O249        O  0.76814506  0.55413057  0.48025414    -0.81200
O250        O  0.82133347  0.51848291  0.44739208    -0.74700
Al251      Al  0.80837732  0.57306825  0.47459392     1.90100
O252        O  0.76330040  0.51660227  0.46183986    -0.73800
O253        O  0.79837359  0.55973427  0.42672845    -0.73600
O254        O  0.74191242  0.56374276  0.44278860    -0.79300
O255        O  0.82516141  0.60830481  0.43263793    -0.77500
O256        O  0.79622128  0.57955576  0.45603866    -1.13600
O257        O  0.83506242  0.63915141  0.45873067    -0.72800
C258        C  0.85473564  0.62336067  0.46716115     0.97900
C259        C  0.75605643  0.52613228  0.47482816     0.94300
Al260      Al  0.78231523  0.54265016  0.44548194     1.55600
O261        O  0.79308831  0.61937984  0.48176915    -0.77500
C262        C  0.81864469  0.58384146  0.42352311     0.98400
C263        C  0.83219084  0.50800982  0.45958556     0.93300
O264        O  0.82615514  0.52538366  0.47131520    -0.82800
O265        O  0.57275172  0.98159284  0.72057906    -0.82200
C266        C  0.48431408  0.91475797  0.68471348     0.97100
O267        O  0.48877181  0.94511359  0.69045362    -0.71400
O268        O  0.50910270  0.99149352  0.71032601    -0.74900
Al269      Al  0.52907567  0.96625721  0.69409910     1.49000
C270        C  0.50195199  0.98246883  0.72336967     0.92400
O271        O  0.53739485  0.88852537  0.72970403    -0.81200
O272        O  0.58014442  0.86849991  0.70712274    -0.74700
Al273      Al  0.55378847  0.93445439  0.72325785     1.90100
O274        O  0.51514728  0.86623331  0.70976984    -0.73800
O275        O  0.57280158  0.90127020  0.68150333    -0.73600
O276        O  0.50723379  0.89275430  0.68352526    -0.79300
O277        O  0.54675985  0.95030837  0.67557273    -0.77500
O278        O  0.54226813  0.92887857  0.70453366    -1.13600
O279        O  0.56780890  0.99050293  0.69679384    -0.72800
C280        C  0.57922940  0.99953459  0.70907880     0.97900
C281        C  0.52071156  0.86460455  0.72337777     0.94300
Al282      Al  0.54382327  0.88586812  0.69610450     1.55600
O283        O  0.51366966  0.95435273  0.72886116    -0.77500
C284        C  0.56767671  0.92672390  0.67270203     0.98400
C285        C  0.59988506  0.88331376  0.71577777     0.93300
O286        O  0.59522576  0.91507355  0.72003242    -0.82800
O287        O  0.66826182  0.99471907  0.52741500    -0.82200
C288        C  0.75662985  0.92116731  0.56026114     0.97100
O289        O  0.75290902  0.95235235  0.55520054    -0.71400
O290        O  0.73179619  0.00147332  0.53670124    -0.74900
Al291      Al  0.71300474  0.97520583  0.55288095     1.49000
C292        C  0.73842044  0.99297253  0.52356221     0.92400
O293        O  0.69949871  0.90019398  0.51624056    -0.81200
O294        O  0.65649483  0.88169669  0.53981682    -0.74700
Al295      Al  0.68521658  0.94677498  0.52365552     1.90100
O296        O  0.72106145  0.87569481  0.53584138    -0.73800
O297        O  0.66818852  0.91190632  0.56571878    -0.73600
O298        O  0.73299984  0.90017582  0.56180365    -0.79300
O299        O  0.69766076  0.95833190  0.57169955    -0.77500
O300        O  0.69753862  0.93927808  0.54218785    -1.13600
O301        O  0.67463523  0.00040488  0.55135035    -0.72800
C302        C  0.66333510  0.01171036  0.53935655     0.97900
C303        C  0.71597280  0.87550751  0.52220152     0.94300
Al304      Al  0.69471097  0.89603798  0.55018799     1.55600
O305        O  0.72591355  0.96543685  0.51788058    -0.77500
C306        C  0.67667274  0.93519752  0.57499475     0.98400
C307        C  0.63726986  0.89771164  0.53129280     0.93300
O308        O  0.64326464  0.92914409  0.52700437    -0.82800
O309        O  0.40112673  0.58668369  0.77741990    -0.82200
C310        C  0.50820237  0.58431693  0.81478321     0.97100
O311        O  0.48568448  0.60701424  0.81591354    -0.71400
O312        O  0.47818523  0.63609290  0.79020079    -0.74900
Al313      Al  0.44904420  0.61476899  0.80326222     1.49000
C314        C  0.47528390  0.63733093  0.77643311     0.92400
O315        O  0.48369854  0.54816797  0.77119718    -0.81200
O316        O  0.42332981  0.51122705  0.80115113    -0.74700
Al317      Al  0.44272385  0.56757142  0.77543018     1.90100
O318        O  0.48325997  0.50885335  0.78906471    -0.73800
O319        O  0.44503595  0.54919654  0.82328307    -0.73600
O320        O  0.50308854  0.55387820  0.80920948    -0.79300
O321        O  0.41958331  0.59855775  0.81759698    -0.77500
O322        O  0.45135761  0.57226917  0.79450026    -1.13600
O323        O  0.41270867  0.63190034  0.79192856    -0.72800
C324        C  0.39481521  0.61752431  0.78229580     0.97900
C325        C  0.49358084  0.51925105  0.77671163     0.94300
Al326      Al  0.46274395  0.53396962  0.80488221     1.55600
O327        O  0.45975616  0.61336773  0.76962872    -0.77500
C328        C  0.42491193  0.57321018  0.82641906     0.98400
C329        C  0.41387106  0.50301679  0.78837808     0.93300
O330        O  0.42333282  0.52052267  0.77720713    -0.82800
O331        O  0.34858465  0.58115799  0.97171562    -0.82200
C332        C  0.23547453  0.59004800  0.93749092     0.97100
O333        O  0.25913090  0.61123083  0.93639987    -0.71400
O334        O  0.27058566  0.63533123  0.96259792    -0.74900
Al335      Al  0.29734555  0.61490344  0.94849454     1.49000
C336        C  0.27596065  0.63598995  0.97621014     0.92400
O337        O  0.26521835  0.54841701  0.98109781    -0.81200
O338        O  0.31583532  0.50883555  0.94842410    -0.74700
Al339      Al  0.30625379  0.56496153  0.97527412     1.90100
O340        O  0.25789634  0.51187467  0.96250144    -0.73800
O341        O  0.29601160  0.55094484  0.92756411    -0.73600
O342        O  0.23917108  0.55935599  0.94300497    -0.79300
O343        O  0.32436850  0.59845621  0.93340323    -0.77500
O344        O  0.29414594  0.57183857  0.95666156    -1.13600
O345        O  0.33566345  0.62908060  0.95909998    -0.72800
C346        C  0.35503893  0.61247722  0.96740813     0.97900
C347        C  0.25153870  0.52153759  0.97554585     0.94300
Al348      Al  0.27844506  0.53574483  0.94619738     1.55600
O349        O  0.29297612  0.61191511  0.98221692    -0.77500
C350        C  0.31748085  0.57375457  0.92449824     0.98400
C351        C  0.32703273  0.49829248  0.96054131     0.93300
O352        O  0.32206719  0.51621480  0.97222609    -0.82800
O353        O  0.66913424  0.48485500  0.02931226    -0.82200
C354        C  0.75883172  0.41294305  0.06230050     0.97100
O355        O  0.75390624  0.44389256  0.05729642    -0.71400
O356        O  0.73325912  0.49118999  0.03836219    -0.74900
Al357      Al  0.71399545  0.46625941  0.05477384     1.49000
C358        C  0.73914368  0.48252334  0.02513674     0.92400
O359        O  0.69901611  0.39108427  0.01853528    -0.81200
O360        O  0.65866757  0.37155676  0.04210727    -0.74700
Al361      Al  0.68532586  0.43716781  0.02592168     1.90100
O362        O  0.72361298  0.36767085  0.03761248    -0.73800
O363        O  0.67070529  0.40125724  0.06792080    -0.73600
O364        O  0.73582030  0.39109819  0.06378661    -0.79300
O365        O  0.69776194  0.44992609  0.07347740    -0.77500
O366        O  0.69875328  0.43002511  0.04431699    -1.13600
O367        O  0.67575631  0.49198954  0.05309359    -0.72800
C368        C  0.66495192  0.50290655  0.04096479     0.97900
C369        C  0.71749916  0.36777961  0.02406222     0.94300
Al370      Al  0.69717672  0.38651475  0.05225775     1.55600
O371        O  0.72561282  0.45552376  0.01950645    -0.77500
C372        C  0.67716666  0.42628443  0.07674100     0.98400
C373        C  0.63829035  0.38812844  0.03432889     0.93300
O374        O  0.64373362  0.41983414  0.03021393    -0.82800
O375        O  0.57337672  0.49183953  0.22333156    -0.82200
C376        C  0.48867022  0.41810952  0.18845252     0.97100
O377        O  0.49271791  0.44956667  0.19315023    -0.71400
O378        O  0.51133442  0.49729707  0.21253308    -0.74900
Al379      Al  0.53234211  0.47256767  0.19662461     1.49000
C380        C  0.50368456  0.48823419  0.22550361     0.92400
O381        O  0.54439568  0.39707927  0.23328741    -0.81200
O382        O  0.58735069  0.37930568  0.21038387    -0.74700
Al383      Al  0.55768869  0.44360617  0.22624390     1.90100
O384        O  0.52238796  0.37273918  0.21378566    -0.73800
O385        O  0.57717237  0.40822996  0.18438760    -0.73600
O386        O  0.51207711  0.39671293  0.18748132    -0.79300
O387        O  0.55028338  0.45635991  0.17822239    -0.77500
O388        O  0.54672408  0.43637939  0.20747987    -1.13600
O389        O  0.57038149  0.49905613  0.19933537    -0.72800
C390        C  0.57962379  0.50972380  0.21182511     0.97900
C391        C  0.52794964  0.37245197  0.22739140     0.94300
Al392      Al  0.54966595  0.39295233  0.19960629     1.55600
O393        O  0.51614623  0.46090101  0.23137124    -0.77500
C394        C  0.57082258  0.43252216  0.17522388     0.98400
C395        C  0.60667342  0.39553598  0.21883586     0.93300
O396        O  0.60037719  0.42685926  0.22328735    -0.82800
O397        O  0.35756496  0.09030901  0.47552740    -0.82200
C398        C  0.24179603  0.09107908  0.44301514     0.97100
O399        O  0.26485689  0.11270437  0.44110002    -0.71400
O400        O  0.27704847  0.14023132  0.46676356    -0.74900
Al401      Al  0.30349606  0.11927183  0.45248243     1.49000
C402        C  0.28390660  0.14225734  0.48023217     0.92400
O403        O  0.27578035  0.05393378  0.48663229    -0.81200
O404        O  0.32594350  0.01551739  0.45353653    -0.74700
Al405      Al  0.31593197  0.07224402  0.47990033     1.90100
O406        O  0.26912304  0.01595373  0.46848220    -0.73800
O407        O  0.30215605  0.05407523  0.43222673    -0.73600
O408        O  0.24661970  0.06094124  0.44886449    -0.79300
O409        O  0.33011638  0.10229193  0.43713840    -0.77500
O410        O  0.30225306  0.07707701  0.46135930    -1.13600
O411        O  0.34170884  0.13600745  0.46227230    -0.72800
C412        C  0.36225500  0.12156902  0.47064679     0.97900
C413        C  0.26283124  0.02607154  0.48147294     0.94300
Al414      Al  0.28718104  0.03960573  0.45157806     1.55600
O415        O  0.30167267  0.11901447  0.48630049    -0.77500
C416        C  0.32270857  0.07729772  0.42841160     0.98400
C417        C  0.33835146  0.00632982  0.46560188     0.93300
O418        O  0.33321558  0.02426069  0.47724198    -0.82800
O419        O  0.39547889  0.09414219  0.28252543    -0.82200
C420        C  0.50988677  0.09148181  0.31528438     0.97100
O421        O  0.48736482  0.11376438  0.31716156    -0.71400
O422        O  0.47708108  0.14261487  0.29144421    -0.74900
Al423      Al  0.44946961  0.12202337  0.30556354     1.49000
C424        C  0.47031151  0.14494781  0.27796024     0.92400
O425        O  0.47623972  0.05705783  0.27144884    -0.81200
O426        O  0.42385427  0.01829456  0.30369400    -0.74700
Al427      Al  0.43651937  0.07582515  0.27802472     1.90100
O428        O  0.48181991  0.01825369  0.28939646    -0.73800
O429        O  0.44678898  0.05541650  0.32536028    -0.73600
O430        O  0.50425934  0.06118888  0.30973521    -0.79300
O431        O  0.42182751  0.10588931  0.32068316    -0.77500
O432        O  0.44977683  0.07974967  0.29661495    -1.13600
O433        O  0.41192346  0.14008159  0.29553294    -0.72800
C434        C  0.39117005  0.12551133  0.28727199     0.97900
C435        C  0.48852960  0.02875691  0.27648512     0.94300
Al436      Al  0.46315777  0.04135230  0.30629748     1.55600
O437        O  0.45184195  0.12229289  0.27194210    -0.77500
C438        C  0.42685957  0.07941501  0.32898465     0.98400
C439        C  0.41208492  0.00985740  0.29141300     0.93300
O440        O  0.41822557  0.02834577  0.28006120    -0.82800
O441        O  0.07316806  0.48583822  0.72439669    -0.82200
C442        C  0.98589614  0.41906998  0.68836326     0.97100
O443        O  0.99077553  0.44983786  0.69362444    -0.71400
O444        O  0.01059593  0.49553184  0.71362426    -0.74900
Al445      Al  0.03108064  0.47073274  0.69742616     1.49000
C446        C  0.00267294  0.48625404  0.72655328     0.92400
O447        O  0.03889628  0.39239363  0.73299862    -0.81200
O448        O  0.08241481  0.37360225  0.71023561    -0.74700
Al449      Al  0.05468161  0.43857849  0.72672117     1.90100
O450        O  0.01714588  0.37001561  0.71301930    -0.73800
O451        O  0.07448839  0.40569136  0.68437904    -0.73600
O452        O  0.00880822  0.39712436  0.68693061    -0.79300
O453        O  0.04912605  0.45530067  0.67877614    -0.77500
O454        O  0.04391121  0.43318101  0.70783214    -1.13600
O455        O  0.06987192  0.49456068  0.70050842    -0.72800
C456        C  0.08067965  0.50336392  0.71294958     0.97900
C457        C  0.02238680  0.36842663  0.72665341     0.94300
Al458      Al  0.04570613  0.39029751  0.69929158     1.55600
O459        O  0.01418047  0.45805181  0.73209172    -0.77500
C460        C  0.06940710  0.43124675  0.67560995     0.98400
C461        C  0.10157415  0.38845555  0.71917434     0.93300
O462        O  0.09624843  0.41983310  0.72371991    -0.82800
O463        O  0.18034553  0.49375658  0.52969379    -0.82200
C464        C  0.26487638  0.42034527  0.56563378     0.97100
O465        O  0.26147043  0.45130073  0.56035754    -0.71400
O466        O  0.24405173  0.49875590  0.54046844    -0.74900
Al467      Al  0.22212670  0.47440629  0.55645841     1.49000
C468        C  0.25108720  0.48941927  0.52742791     0.92400
O469        O  0.21058560  0.39903547  0.51985479    -0.81200
O470        O  0.16785621  0.38017950  0.54219744    -0.74700
Al471      Al  0.19650296  0.44533752  0.52681202     1.90100
O472        O  0.23305894  0.37535183  0.53943261    -0.73800
O473        O  0.17614511  0.41010174  0.56849132    -0.73600
O474        O  0.24142366  0.39890271  0.56613316    -0.79300
O475        O  0.20301054  0.45824661  0.57484800    -0.77500
O476        O  0.20758606  0.43828047  0.54559101    -1.13600
O477        O  0.18470051  0.50131907  0.55357905    -0.72800
C478        C  0.17479355  0.51195874  0.54121954     0.97900
C479        C  0.22784322  0.37514701  0.52577164     0.94300
Al480      Al  0.20468935  0.39484794  0.55346042     1.55600
O481        O  0.23768189  0.46262242  0.52165253    -0.77500
C482        C  0.18205931  0.43454459  0.57773406     0.98400
C483        C  0.14850434  0.39589949  0.53361654     0.93300
O484        O  0.15390637  0.42783500  0.52964523    -0.82800
O485        O  0.90105465  0.08241883  0.77944929    -0.82200
C486        C  0.01286721  0.08802410  0.81409777     0.97100
O487        O  0.98984570  0.11005910  0.81488870    -0.71400
O488        O  0.98055937  0.13458240  0.78835838    -0.74900
Al489      Al  0.95255775  0.11528261  0.80254143     1.49000
C490        C  0.97469831  0.13513460  0.77475100     0.92400
O491        O  0.98341593  0.04677007  0.77067466    -0.81200
O492        O  0.92980616  0.01027740  0.80314642    -0.74700
Al493      Al  0.94284413  0.06490214  0.77607787     1.90100
O494        O  0.98833688  0.00980697  0.78931020    -0.73800
O495        O  0.95158373  0.05264952  0.82396197    -0.73600
O496        O  0.00865585  0.05727072  0.80869038    -0.79300
O497        O  0.92425295  0.10028702  0.81752914    -0.77500
O498        O  0.95461648  0.07188244  0.79467022    -1.13600
O499        O  0.91534450  0.13053784  0.79167223    -0.72800
C500        C  0.89563783  0.11417570  0.78347318     0.97900
C501        C  0.99535839  0.01889626  0.77624843     0.94300
Al502      Al  0.96852595  0.03544134  0.80545078     1.55600
O503        O  0.95728720  0.11111586  0.76894903    -0.77500
C504        C  0.93061576  0.07621894  0.82680012     0.98400
C505        C  0.91938912  0.99983581  0.79083721     0.93300
O506        O  0.92586014  0.01713033  0.77918541    -0.82800
O507        O  0.85301071  0.08701451  0.97194108    -0.82200
C508        C  0.74027136  0.09166205  0.93763442     0.97100
O509        O  0.76302932  0.11411394  0.93664314    -0.71400
O510        O  0.77324212  0.13836722  0.96308666    -0.74900
Al511      Al  0.80092252  0.11952239  0.94890303     1.49000
C512        C  0.77933623  0.13933571  0.97664444     0.92400
O513        O  0.77058449  0.05100911  0.98120794    -0.81200
O514        O  0.82358949  0.01495403  0.94835957    -0.74700
Al515      Al  0.81130203  0.06924336  0.97549981     1.90100
O516        O  0.76546801  0.01411647  0.96256805    -0.73800
O517        O  0.80132521  0.05660866  0.92769759    -0.73600
O518        O  0.74496989  0.06143511  0.94340405    -0.79300
O519        O  0.82884025  0.10468287  0.93371646    -0.77500
O520        O  0.79916589  0.07618903  0.95692104    -1.13600
O521        O  0.83837973  0.13511931  0.95980349    -0.72800
C522        C  0.85791832  0.11914145  0.96824411     0.97900
C523        C  0.75832175  0.02329810  0.97559783     0.94300
Al524      Al  0.78494280  0.03974955  0.94632875     1.55600
O525        O  0.79694199  0.11568263  0.98256946    -0.77500
C526        C  0.82209072  0.08021985  0.92468092     0.98400
C527        C  0.83382269  0.00357182  0.96053085     0.93300
O528        O  0.82830524  0.02101567  0.97229257    -0.82800
O529        O  0.89747112  0.66833159  0.97249112    -0.82200
C530        C  0.00828982  0.66542216  0.93668433     0.97100
O531        O  0.98550598  0.64298733  0.93594307    -0.71400
O532        O  0.97646713  0.61775633  0.96224406    -0.74900
Al533      Al  0.94818826  0.63723369  0.94836883     1.49000
C534        C  0.97168244  0.61712263  0.97591307     0.92400
O535        O  0.98011271  0.70649650  0.98033399    -0.81200
O536        O  0.92463195  0.74256676  0.94855960    -0.74700
Al537      Al  0.93934899  0.68715076  0.97524883     1.90100
O538        O  0.98413537  0.74301489  0.96154977    -0.73800
O539        O  0.94508185  0.70140431  0.92741629    -0.73600
O540        O  0.00346740  0.69630979  0.94183898    -0.79300
O541        O  0.91974210  0.65192377  0.93340724    -0.77500
O542        O  0.95014357  0.68067158  0.95643997    -1.13600
O543        O  0.91097108  0.62127225  0.95943104    -0.72800
C544        C  0.89172585  0.63680137  0.96815688     0.97900
C545        C  0.99220468  0.73403803  0.97447413     0.94300
Al546      Al  0.96327296  0.71768256  0.94567942     1.55600
O547        O  0.95496411  0.64123614  0.98203489    -0.77500
C548        C  0.92476157  0.67724917  0.92454255     0.98400
C549        C  0.91445168  0.75240051  0.96098184     0.93300
O550        O  0.92134233  0.73466435  0.97247227    -0.82800
O551        O  0.84471602  0.67236798  0.77922755    -0.82200
C552        C  0.73342768  0.66407570  0.81410996     0.97100
O553        O  0.75745571  0.64359023  0.81540951    -0.71400
O554        O  0.76702466  0.61831901  0.78922741    -0.74900
Al555      Al  0.79471555  0.63935571  0.80298500     1.49000
C556        C  0.77126873  0.61832192  0.77551677     0.92400
O557        O  0.76147936  0.70626990  0.77061445    -0.81200
O558        O  0.81329069  0.74465780  0.80313696    -0.74700
Al559      Al  0.80247542  0.68908319  0.77613859     1.90100
O560        O  0.75521321  0.74315538  0.78912669    -0.73800
O561        O  0.79294652  0.70259971  0.82402937    -0.73600
O562        O  0.73634881  0.69477801  0.80848284    -0.79300
O563        O  0.82253439  0.65652558  0.81770082    -0.77500
O564        O  0.79103060  0.68227582  0.79477694    -1.13600
O565        O  0.83234583  0.62462269  0.79201906    -0.72800
C566        C  0.85126518  0.64106695  0.78344930     0.97900
C567        C  0.74831783  0.73344131  0.77614313     0.94300
Al568      Al  0.77563837  0.71838882  0.80535500     1.55600
O569        O  0.78805490  0.64247249  0.76937409    -0.77500
C570        C  0.81489647  0.68024267  0.82694863     0.98400
C571        C  0.82495603  0.75472523  0.79103652     0.93300
O572        O  0.81932397  0.73729055  0.77927940    -0.82800
O573        O  0.07559074  0.27143201  0.02993782    -0.82200
C574        C  0.98731815  0.33862685  0.06521421     0.97100
O575        O  0.99281302  0.30781474  0.06020097    -0.71400
O576        O  0.01299531  0.26299967  0.04039231    -0.74900
Al577      Al  0.03314430  0.28715148  0.05664739     1.49000
C578        C  0.00494304  0.27326980  0.02763640     0.92400
O579        O  0.04288506  0.36573279  0.02110825    -0.81200
O580        O  0.08490363  0.38434044  0.04423332    -0.74700
Al581      Al  0.05803796  0.31942032  0.02761800     1.90100
O582        O  0.01981135  0.38781235  0.04078902    -0.73800
O583        O  0.07561567  0.35250307  0.07001985    -0.73600
O584        O  0.00991414  0.36100588  0.06676468    -0.79300
O585        O  0.05033670  0.30250560  0.07529496    -0.77500
O586        O  0.04641345  0.32480164  0.04637468    -1.13600
O587        O  0.07198740  0.26288845  0.05376868    -0.72800
C588        C  0.08177217  0.25288251  0.04129328     0.97900
C589        C  0.02537400  0.38919291  0.02717841     0.94300
Al590      Al  0.04763823  0.36775679  0.05483226     1.55600
O591        O  0.01745113  0.30092023  0.02207984    -0.77500
C592        C  0.07022141  0.32674680  0.07863813     0.98400
C593        C  0.10464947  0.36941992  0.03557921     0.93300
O594        O  0.09971255  0.33782812  0.03110403    -0.82800
O595        O  0.16990707  0.27326646  0.22463750    -0.82200
C596        C  0.26102530  0.34123064  0.19143568     0.97100
O597        O  0.25560749  0.31084954  0.19694073    -0.71400
O598        O  0.23278244  0.26426756  0.21583109    -0.74900
Al599      Al  0.21510901  0.28976782  0.19915809     1.49000
C600        C  0.24000635  0.27464857  0.22868326     0.92400
O601        O  0.20208223  0.36754131  0.23464661    -0.81200
O602        O  0.16037972  0.38558338  0.21081479    -0.74700
Al603      Al  0.18748011  0.32106765  0.22778386     1.90100
O604        O  0.22560213  0.38986683  0.21507380    -0.73800
O605        O  0.17221737  0.35315821  0.18553101    -0.73600
O606        O  0.23820067  0.36324732  0.18943715    -0.79300
O607        O  0.20071422  0.30587305  0.17997581    -0.77500
O608        O  0.20045100  0.32688819  0.20929774    -1.13600
O609        O  0.17592624  0.26612975  0.20074258    -0.72800
C610        C  0.16383382  0.25635092  0.21280364     0.97900
C611        C  0.21981010  0.39099179  0.22864243     0.94300
Al612      Al  0.19906983  0.36951378  0.20081949     1.55600
O613        O  0.22782550  0.30282307  0.23388091    -0.77500
C614        C  0.17934075  0.32853386  0.17662989     0.98400
C615        C  0.14017711  0.36990280  0.21905548     0.93300
O616        O  0.14592807  0.33886902  0.22386222    -0.82800
O617        O  0.34590978  0.67737971  0.27556135    -0.82200
C618        C  0.23465268  0.67828208  0.31092590     0.97100
O619        O  0.25694089  0.65542050  0.31216070    -0.71400
O620        O  0.26503406  0.62953911  0.28589687    -0.74900
Al621      Al  0.29398705  0.64819108  0.29965983     1.49000
C622        C  0.27081451  0.62739622  0.27233388     0.92400
O623        O  0.26364983  0.71590193  0.26726994    -0.81200
O624        O  0.31994810  0.75164301  0.29882973    -0.74700
Al625      Al  0.30424255  0.69657824  0.27248113     1.90100
O626        O  0.26042952  0.75389430  0.28562424    -0.73800
O627        O  0.29864835  0.71237394  0.32038969    -0.73600
O628        O  0.24038385  0.70872481  0.30558548    -0.79300
O629        O  0.32318289  0.66257947  0.31442889    -0.77500
O630        O  0.29314591  0.69112396  0.29131707    -1.13600
O631        O  0.33053485  0.63101289  0.28865199    -0.72800
C632        C  0.35058830  0.64576936  0.28007601     0.97900
C633        C  0.25181831  0.74389613  0.27286191     0.94300
Al634      Al  0.28084337  0.72864075  0.30181625     1.55600
O635        O  0.28842102  0.65045463  0.26604488    -0.77500
C636        C  0.31883365  0.68801569  0.32333225     0.98400
C637        C  0.33004377  0.76141344  0.28640240     0.93300
O638        O  0.32260681  0.74408774  0.27488280    -0.82800
O639        O  0.39936420  0.67318291  0.46987512    -0.82200
C640        C  0.50997924  0.67094662  0.43480847     0.97100
O641        O  0.48711026  0.64887018  0.43342301    -0.71400
O642        O  0.47718045  0.62140841  0.45931888    -0.74900
Al643      Al  0.44954998  0.64273352  0.44543526     1.49000
C644        C  0.47317647  0.62139155  0.47305965     0.92400
O645        O  0.48209497  0.70965640  0.47827333    -0.81200
O646        O  0.42680673  0.74764031  0.44686388    -0.74700
Al647      Al  0.44122354  0.69110407  0.47290707     1.90100
O648        O  0.48595030  0.74743033  0.45994777    -0.73800
O649        O  0.44795869  0.70836535  0.42512203    -0.73600
O650        O  0.50519781  0.70175565  0.44002703    -0.79300
O651        O  0.42181410  0.65891523  0.43023506    -0.77500
O652        O  0.45194711  0.68559069  0.45403643    -1.13600
O653        O  0.41208368  0.62696561  0.45616322    -0.72800
C654        C  0.39329707  0.64207709  0.46520790     0.97900
C655        C  0.49391537  0.73775591  0.47279052     0.94300
Al656      Al  0.46538690  0.72316046  0.44376821     1.55600
O657        O  0.45645113  0.64532321  0.47919618    -0.77500
C658        C  0.42795592  0.68444068  0.42157093     0.98400
C659        C  0.41684265  0.75681290  0.45942553     0.93300
O660        O  0.42367905  0.73844496  0.47070283    -0.82800
O661        O  0.67269952  0.26461946  0.72502872    -0.82200
C662        C  0.76023881  0.33714459  0.69061641     0.97100
O663        O  0.75565258  0.30598576  0.69548829    -0.71400
O664        O  0.73587445  0.25919017  0.71473879    -0.74900
Al665      Al  0.71551400  0.28402655  0.69877276     1.49000
C666        C  0.74323999  0.26830627  0.72774386     0.92400
O667        O  0.70287917  0.35959816  0.73555353    -0.81200
O668        O  0.66291555  0.37842820  0.71259559    -0.74700
Al669      Al  0.68917955  0.31291158  0.72823564     1.90100
O670        O  0.72776101  0.38186110  0.71636281    -0.73800
O671        O  0.67238386  0.35010609  0.68662918    -0.73600
O672        O  0.73729068  0.35908269  0.68976766    -0.79300
O673        O  0.69788082  0.30085443  0.68045147    -0.77500
O674        O  0.70143227  0.32016118  0.70962109    -1.13600
O675        O  0.67718814  0.25859312  0.70109158    -0.72800
C676        C  0.66681855  0.24742145  0.71327255     0.97900
C677        C  0.72039455  0.38358535  0.72977621     0.94300
Al678      Al  0.70006343  0.36375183  0.70193709     1.55600
O679        O  0.72995769  0.29494891  0.73375148    -0.77500
C680        C  0.67797379  0.32541859  0.67755350     0.98400
C681        C  0.64249600  0.36253844  0.72056626     0.93300
O682        O  0.64716082  0.33060529  0.72467876    -0.82800
O683        O  0.57583046  0.28020420  0.52991586    -0.82200
C684        C  0.49117931  0.34790354  0.56665243     0.97100
O685        O  0.49595333  0.31766952  0.56089450    -0.71400
O686        O  0.51499308  0.27231326  0.54067424    -0.74900
Al687      Al  0.53556857  0.29646591  0.55695820     1.49000
C688        C  0.50689817  0.28240239  0.52788175     0.92400
O689        O  0.54582069  0.37524312  0.52167655    -0.81200
O690        O  0.58937619  0.39197584  0.54442747    -0.74700
Al691      Al  0.55944795  0.32843134  0.52785441     1.90100
O692        O  0.52417721  0.39835435  0.54150760    -0.73800
O693        O  0.57975239  0.36007030  0.57011467    -0.73600
O694        O  0.51375697  0.37067530  0.56753924    -0.79300
O695        O  0.55305983  0.31132466  0.57552800    -0.77500
O696        O  0.54885881  0.33400401  0.54669287    -1.13600
O697        O  0.57420166  0.27205591  0.55384685    -0.72800
C698        C  0.58318515  0.26217518  0.54124024     0.97900
C699        C  0.53002592  0.39985362  0.52791994     0.94300
Al700      Al  0.55165878  0.37669385  0.55528822     1.55600
O701        O  0.51799584  0.31116391  0.52261483    -0.77500
C702        C  0.57389751  0.33459087  0.57880034     0.98400
C703        C  0.60813375  0.37613706  0.53554248     0.93300
O704        O  0.60167657  0.34496195  0.53104392    -0.82800
C705        C  0.63750137  0.39156817  0.61822714    -0.18300
C706        C  0.65098094  0.39068456  0.63232212    -0.20400
C707        C  0.64925733  0.35939556  0.64085313     0.20200
C708        C  0.63389336  0.32865406  0.63515499    -0.03400
C709        C  0.61983574  0.32976251  0.62103579    -0.06400
C710        C  0.62174752  0.36136175  0.61252647     0.20500
C711        C  0.60374940  0.29935093  0.61547658     0.18700
C712        C  0.60225854  0.26796873  0.62398017    -0.17900
C713        C  0.61669373  0.26667070  0.63788355    -0.20100
C714        C  0.63257397  0.29681097  0.64356109     0.20100
C715        C  0.64727219  0.29572558  0.65745103    -0.33100
C716        C  0.66225383  0.32638429  0.66314697     0.00800
C717        C  0.66284302  0.35822467  0.65494350    -0.24500
C718        C  0.60748070  0.36236082  0.59855966    -0.29000
C719        C  0.59072489  0.33247074  0.59309536     0.06500
C720        C  0.58915859  0.30095859  0.60157621    -0.27700
H721        H  0.63916036  0.41603638  0.61182303     0.11200
H722        H  0.66283522  0.41439520  0.63652978     0.12400
H723        H  0.58998394  0.24442677  0.61986431     0.11400
H724        H  0.61535010  0.24207960  0.64422221     0.10700
H725        H  0.64675129  0.27128100  0.66392358     0.16100
H726        H  0.67466771  0.38174145  0.65939826     0.12000
H727        H  0.60871658  0.38678116  0.59209901     0.14800
H728        H  0.57648487  0.27772536  0.59738533     0.14600
C729        C  0.54057503  0.47659377  0.48400617    -0.18300
C730        C  0.53398758  0.50853827  0.47656378    -0.20400
C731        C  0.51469314  0.53486190  0.48313685     0.20200
C732        C  0.50259924  0.52939764  0.49749341    -0.03400
C733        C  0.50905844  0.49712137  0.50495097    -0.06400
C734        C  0.52783735  0.47045171  0.49809746     0.20500
C735        C  0.49636664  0.49137225  0.51917534     0.18700
C736        C  0.47791923  0.51815083  0.52593820    -0.17900
C737        C  0.47145360  0.55013177  0.51853012    -0.20100
C738        C  0.48338645  0.55579874  0.50426647     0.20100
C739        C  0.47550476  0.58687030  0.49647854    -0.33100
C740        C  0.48611121  0.59166892  0.48191295     0.00800
C741        C  0.50639317  0.56601031  0.47543552    -0.24500
C742        C  0.53357381  0.43813258  0.50545730    -0.29000
C743        C  0.52088996  0.43217275  0.51960559     0.06500
C744        C  0.50235371  0.45895903  0.52639940    -0.27700
H745        H  0.55528771  0.45649710  0.47866374     0.11200
H746        H  0.54360515  0.51244405  0.46558252     0.12400
H747        H  0.46820178  0.51419530  0.53689650     0.11400
H748        H  0.45672796  0.57021897  0.52387359     0.10700
H749        H  0.45984576  0.60652775  0.50154346     0.16100
H750        H  0.51481840  0.56967379  0.46422765     0.12000
H751        H  0.54846298  0.41792046  0.50027575     0.14800
H752        H  0.49288714  0.45478071  0.53739764     0.14600
C753        C  0.38342478  0.62568483  0.36116115    -0.18300
C754        C  0.39792427  0.62490376  0.37506288    -0.20400
C755        C  0.39814493  0.65558488  0.38400693     0.20200
C756        C  0.38421374  0.68761258  0.37876248    -0.03400
C757        C  0.36910403  0.68822476  0.36481381    -0.06400
C758        C  0.36859870  0.65704200  0.35601992     0.20500
C759        C  0.35411255  0.71984209  0.35977808     0.18700
C760        C  0.35523664  0.75083961  0.36854239    -0.17900
C761        C  0.37070617  0.75041398  0.38224885    -0.20100
C762        C  0.38501570  0.71888064  0.38752704     0.20100
C763        C  0.39980239  0.71788254  0.40145532    -0.33100
C764        C  0.41268227  0.68570158  0.40690990     0.00800
C765        C  0.41183098  0.65471426  0.39813623    -0.24500
C766        C  0.35281484  0.65755086  0.34236020    -0.29000
C767        C  0.33689440  0.68860505  0.33744002     0.06500
C768        C  0.33792285  0.71976805  0.34617739    -0.27700
H769        H  0.38337937  0.60154860  0.35451349     0.11200
H770        H  0.40878044  0.60021934  0.37886147     0.12400
H771        H  0.34400400  0.77539005  0.36482836     0.11400
H772        H  0.37111142  0.77467381  0.38881717     0.10700
H773        H  0.40063627  0.74184059  0.40821529     0.16100
H774        H  0.42231164  0.63008302  0.40224775     0.12000
H775        H  0.35223797  0.63339604  0.33572105     0.14800
H776        H  0.32606067  0.74392960  0.34241566     0.14600
C777        C  0.28933034  0.53550553  0.23453944    -0.18300
C778        C  0.28436921  0.50067722  0.22935520    -0.20400
C779        C  0.26172203  0.47824671  0.23614213     0.20200
C780        C  0.24408254  0.49074541  0.24835674    -0.03400
C781        C  0.24890624  0.52592537  0.25351493    -0.06400
C782        C  0.27160265  0.54842371  0.24656036     0.20500
C783        C  0.23110107  0.53850263  0.26567043     0.18700
C784        C  0.20875186  0.51592443  0.27256724    -0.17900
C785        C  0.20381409  0.48109790  0.26739251    -0.20100
C786        C  0.22123579  0.46831785  0.25525910     0.20100
C787        C  0.21527446  0.43405577  0.24954240    -0.33100
C788        C  0.23153841  0.42231958  0.23688975     0.00800
C789        C  0.25550519  0.44403929  0.23057876    -0.24500
C790        C  0.27684508  0.58305964  0.25202336    -0.29000
C791        C  0.25997222  0.59516324  0.26446563     0.06500
C792        C  0.23660289  0.57308564  0.27098502    -0.27700
H793        H  0.30695795  0.55232489  0.22915208     0.11200
H794        H  0.29807983  0.49137211  0.21994104     0.12400
H795        H  0.19503887  0.52522491  0.28198134     0.11400
H796        H  0.18619849  0.46427475  0.27279140     0.10700
H797        H  0.19658870  0.41755654  0.25434423     0.16100
H798        H  0.26823141  0.43501138  0.22082332     0.12000
H799        H  0.29529029  0.59973725  0.24713097     0.14800
H800        H  0.22363709  0.58227530  0.28064696     0.14600
C801        C  0.07974396  0.37179999  0.12930313    -0.18300
C802        C  0.09486414  0.37184354  0.14304698    -0.20400
C803        C  0.12093365  0.34900992  0.14576787     0.20200
C804        C  0.13164853  0.32554231  0.13462328    -0.03400
C805        C  0.11626011  0.32536516  0.12075757    -0.06400
C806        C  0.09035237  0.34886597  0.11807506     0.20500
C807        C  0.12688345  0.30188298  0.10956694     0.18700
C808        C  0.15282632  0.27887140  0.11236058    -0.17900
C809        C  0.16819180  0.27921233  0.12609285    -0.20100
C810        C  0.15782638  0.30244035  0.13729650     0.20100
C811        C  0.17322652  0.30317745  0.15107907    -0.33100
C812        C  0.16284606  0.32683704  0.16218409     0.00800
C813        C  0.13655139  0.34949620  0.15942610    -0.24500
C814        C  0.07562978  0.34913355  0.10419241    -0.29000
C815        C  0.08608799  0.32587237  0.09306623     0.06500
C816        C  0.11146286  0.30204320  0.09578134    -0.27700
H817        H  0.05978023  0.38986321  0.12743358     0.11200
H818        H  0.08631209  0.38990491  0.15151556     0.12400
H819        H  0.16131402  0.26073628  0.10390561     0.11400
H820        H  0.18826260  0.26129361  0.12794144     0.10700
H821        H  0.19346707  0.28560213  0.15310013     0.16100
H822        H  0.12821378  0.36767982  0.16791160     0.12000
H823        H  0.05586758  0.36730172  0.10201809     0.14800
H824        H  0.11937684  0.28411066  0.08711586     0.14600
C825        C  0.78884555  0.52852703  0.73712480    -0.18300
C826        C  0.78369400  0.49401455  0.73169595    -0.20400
C827        C  0.75960057  0.47224993  0.73772601     0.20200
C828        C  0.74009599  0.48541883  0.74921227    -0.03400
C829        C  0.74533810  0.52025652  0.75472691    -0.06400
C830        C  0.76999632  0.54175584  0.74870449     0.20500
C831        C  0.72649065  0.53321517  0.76648698     0.18700
C832        C  0.70179066  0.51174974  0.77224247    -0.17900
C833        C  0.69622000  0.47735742  0.76659855    -0.20100
C834        C  0.71554228  0.46374733  0.75521370     0.20100
C835        C  0.71043796  0.42913380  0.74953677    -0.33100
C836        C  0.72957858  0.41621522  0.73791349     0.00800
C837        C  0.75435102  0.43777228  0.73226605    -0.24500
C838        C  0.77637199  0.57550044  0.75476155    -0.29000
C839        C  0.75909982  0.58755540  0.76705330     0.06500
C840        C  0.73359976  0.56677955  0.77262473    -0.27700
H841        H  0.80785088  0.54466795  0.73241958     0.11200
H842        H  0.79870698  0.48425439  0.72278128     0.12400
H843        H  0.68697152  0.52141288  0.78123790     0.11400
H844        H  0.67709672  0.46129521  0.77122917     0.10700
H845        H  0.69079127  0.41299453  0.75367257     0.16100
H846        H  0.76895846  0.42810095  0.72318730     0.12000
H847        H  0.79626302  0.59122538  0.75057433     0.14800
H848        H  0.72019365  0.57610439  0.78213761     0.14600
C849        C  0.97013895  0.50564987  0.02618675    -0.18300
C850        C  0.96481386  0.53889543  0.01953174    -0.20400
C851        C  0.97741901  0.54622404  0.00551481     0.20200
C852        C  0.99548626  0.51974989  0.99811270    -0.03400
C853        C  0.00073158  0.48616411  0.00479901    -0.06400
C854        C  0.98812434  0.47921137  0.01893464     0.20500
C855        C  0.01886454  0.45972469  0.99741266     0.18700
C856        C  0.03126189  0.46695431  0.98334617    -0.17900
C857        C  0.02593879  0.50019924  0.97669003    -0.20100
C858        C  0.00815954  0.52672970  0.98399492     0.20100
C859        C  0.00211655  0.55975803  0.97726231    -0.33100
C860        C  0.98314562  0.58581179  0.98433561     0.00800
C861        C  0.97151020  0.57917900  0.99861304    -0.24500
C862        C  0.99451703  0.44635405  0.02575439    -0.29000
C863        C  0.01373904  0.42044743  0.01874008     0.06500
C864        C  0.02511228  0.42695252  0.00439921    -0.27700
H865        H  0.96031724  0.50067919  0.03706547     0.11200
H866        H  0.95079677  0.55883731  0.02533044     0.12400
H867        H  0.04523127  0.44698534  0.97753600     0.11400
H868        H  0.03570542  0.50514813  0.96580140     0.10700
H869        H  0.01117415  0.56459228  0.96622985     0.16100
H870        H  0.95664224  0.59894162  0.00407818     0.12000
H871        H  0.98555979  0.44156984  0.03680831     0.14800
H872        H  0.04003522  0.40722777  0.99893836     0.14600
C873        C  0.89271324  0.61727993  0.87870313    -0.18300
C874        C  0.87802368  0.61806584  0.86487877    -0.20400
C875        C  0.86212779  0.64903806  0.86005971     0.20200
C876        C  0.86096514  0.67955718  0.86921134    -0.03400
C877        C  0.87628629  0.67896891  0.88306497    -0.06400
C878        C  0.89205075  0.64755655  0.88784380     0.20500
C879        C  0.87600843  0.70980506  0.89208305     0.18700
C880        C  0.85968705  0.74059952  0.88732244    -0.17900
C881        C  0.84396281  0.74093288  0.87368413    -0.20100
C882        C  0.84462623  0.71065752  0.86450274     0.20100
C883        C  0.82939543  0.71087310  0.85068988    -0.33100
C884        C  0.83089703  0.68062158  0.84146095     0.00800
C885        C  0.84737383  0.64989949  0.84623393    -0.24500
C886        C  0.90711012  0.64708478  0.90162483    -0.29000
C887        C  0.90759402  0.67791569  0.91044193     0.06500
C888        C  0.89219362  0.70927184  0.90565166    -0.27700
H889        H  0.90481466  0.59301881  0.88220916     0.11200
H890        H  0.87903195  0.59443712  0.85796999     0.12400
H891        H  0.85908532  0.76439490  0.89414362     0.11400
H892        H  0.83149384  0.76502357  0.87025872     0.10700
H893        H  0.81672404  0.73465623  0.84705330     0.16100
H894        H  0.84834016  0.62634047  0.83926096     0.12000
H895        H  0.91925350  0.62302941  0.90535962     0.14800
H896        H  0.89249803  0.73294829  0.91257687     0.14600
C897        C  0.88273964  0.90109800  0.98725618    -0.18300
C898        C  0.89183707  0.86496366  0.98755243    -0.20400
C899        C  0.88890956  0.84354657  0.97489130     0.20200
C900        C  0.87675437  0.85874324  0.96179790    -0.03400
C901        C  0.86795862  0.89524191  0.96145901    -0.06400
C902        C  0.87076442  0.91654970  0.97427275     0.20500
C903        C  0.85632635  0.91035570  0.94828282     0.18700
C904        C  0.85324269  0.88905001  0.93561869    -0.17900
C905        C  0.86189353  0.85294051  0.93596240    -0.20100
C906        C  0.87383973  0.83763156  0.94895383     0.20100
C907        C  0.88396374  0.80191521  0.94916000    -0.33100
C908        C  0.89733502  0.78694383  0.96197268     0.00800
C909        C  0.89892318  0.80758945  0.97493194    -0.24500
C910        C  0.86099381  0.95265048  0.97390797    -0.29000
C911        C  0.84888432  0.96764537  0.96082210     0.06500
C912        C  0.84734507  0.94637038  0.94800932    -0.27700
H913        H  0.88512197  0.91699216  0.99719814     0.11200
H914        H  0.90127185  0.85379485  0.99767551     0.12400
H915        H  0.84415024  0.90032062  0.92544852     0.11400
H916        H  0.85954167  0.83705875  0.92601264     0.10700
H917        H  0.88272737  0.78615574  0.93912573     0.16100
H918        H  0.90963015  0.79635536  0.98478447     0.12000
H919        H  0.86207863  0.96873909  0.98384744     0.14800
H920        H  0.83783521  0.95738083  0.93786000     0.14600
C921        C  0.94364651  0.25090648  0.98182227    -0.18300
C922        C  0.92426555  0.22856631  0.97318498    -0.20400
C923        C  0.91404687  0.19519050  0.97855956     0.20200
C924        C  0.92342521  0.18427332  0.99282499    -0.03400
C925        C  0.94255274  0.20702550  0.00162512    -0.06400
C926        C  0.95289806  0.24038447  0.99605513     0.20500
C927        C  0.95137756  0.19630835  0.01597767     0.18700
C928        C  0.94096281  0.16311625  0.02142678    -0.17900
C929        C  0.92220974  0.14047504  0.01268464    -0.20100
C930        C  0.91343967  0.15077840  0.99836585     0.20100
C931        C  0.89413477  0.12849820  0.98966420    -0.33100
C932        C  0.88372382  0.13962808  0.97563354     0.00800
C933        C  0.89400993  0.17291390  0.97010178    -0.24500
C934        C  0.97261148  0.26242843  0.00473796    -0.29000
C935        C  0.98200278  0.25156923  0.01895399     0.06500
C936        C  0.97083115  0.21870591  0.02455339    -0.27700
H937        H  0.95134666  0.27642433  0.97738524     0.11200
H938        H  0.91725417  0.23742926  0.96226744     0.12400
H939        H  0.94748097  0.15453549  0.03244811     0.11400
H940        H  0.91447545  0.11498433  0.01712992     0.10700
H941        H  0.88573152  0.10330987  0.99418240     0.16100
H942        H  0.88571594  0.18186269  0.95938540     0.12000
H943        H  0.98101616  0.28773649  0.00033650     0.14800
H944        H  0.97790833  0.21005607  0.03549354     0.14600
C945        C  0.85521451  0.86518397  0.81664851    -0.18300
C946        C  0.86606632  0.90054132  0.81640538    -0.20400
C947        C  0.87793190  0.91546217  0.80331710     0.20200
C948        C  0.87897295  0.89462904  0.79033960    -0.03400
C949        C  0.86792460  0.85892748  0.79057916    -0.06400
C950        C  0.85594835  0.84432246  0.80379652     0.20500
C951        C  0.86848612  0.83803675  0.77759156     0.18700
C952        C  0.88091460  0.85289407  0.76457350    -0.17900
C953        C  0.89221844  0.88825168  0.76437226    -0.20100
C954        C  0.89111084  0.90942320  0.77715764     0.20100
C955        C  0.90252346  0.94483508  0.77710908    -0.33100
C956        C  0.90223773  0.96533673  0.79012177     0.00800
C957        C  0.88941772  0.95063453  0.80309709    -0.24500
C958        C  0.84401378  0.80942418  0.80388692    -0.29000
C959        C  0.84287430  0.78892381  0.79086527     0.06500
C960        C  0.85580975  0.80308951  0.77779056    -0.27700
H961        H  0.84598267  0.85423804  0.82687252     0.11200
H962        H  0.86523962  0.91619186  0.82645247     0.12400
H963        H  0.88169200  0.83725433  0.75452349     0.11400
H964        H  0.90170972  0.89910437  0.75418360     0.10700
H965        H  0.91290328  0.95586621  0.76712996     0.16100
H966        H  0.88927262  0.96626485  0.81317172     0.12000
H967        H  0.83424414  0.79885145  0.81407784     0.14800
H968        H  0.85510946  0.78744947  0.76773092     0.14600
C969        C  0.92392979  0.03713133  0.87867274    -0.18300
C970        C  0.90881049  0.03784001  0.89242273    -0.20400
C971        C  0.88102928  0.05835960  0.89457306     0.20200
C972        C  0.86841073  0.07862667  0.88277159    -0.03400
C973        C  0.88368537  0.07792968  0.86890079    -0.06400
C974        C  0.91148956  0.05694515  0.86684307     0.20500
C975        C  0.87112820  0.09818673  0.85710774     0.18700
C976        C  0.84342868  0.11889830  0.85927879    -0.17900
C977        C  0.82822122  0.11954951  0.87302412    -0.20100
C978        C  0.84052249  0.09952009  0.88482761     0.20100
C979        C  0.82546202  0.09994728  0.89865296    -0.33100
C980        C  0.83795428  0.07966695  0.91032279     0.00800
C981        C  0.86560350  0.05897194  0.90829437    -0.24500
C982        C  0.92642595  0.05614654  0.85300732    -0.29000
C983        C  0.91413480  0.07633770  0.84121850     0.06500
C984        C  0.88651434  0.09737296  0.84337072    -0.27700
H985        H  0.94531423  0.02102398  0.87727882     0.11200
H986        H  0.91883290  0.02223048  0.90138668     0.12400
H987        H  0.83348166  0.13460174  0.85032659     0.11400
H988        H  0.80686505  0.13568911  0.87442569     0.10700
H989        H  0.80404448  0.11588168  0.90036829     0.16100
H990        H  0.87505296  0.04344180  0.91742243     0.12000
H991        H  0.94785504  0.04014263  0.85147317     0.14800
H992        H  0.87688280  0.11302614  0.83432519     0.14600
C993        C  0.80794202  0.15862405  0.73230210    -0.18300
C994        C  0.82737324  0.13576662  0.74057265    -0.20400
C995        C  0.83678939  0.14535297  0.75488135     0.20200
C996        C  0.82652744  0.17818636  0.76095870    -0.03400
C997        C  0.80665565  0.20110739  0.75264925    -0.06400
C998        C  0.79744054  0.19125107  0.73824383     0.20500
C999        C  0.79611807  0.23386550  0.75871936     0.18700
C1000       C  0.80579298  0.24351965  0.77300120    -0.17900
C1001       C  0.82597841  0.22104210  0.78115205    -0.20100
C1002       C  0.83655235  0.18838183  0.77522050     0.20100
C1003       C  0.85775429  0.16625159  0.78306711    -0.33100
C1004       C  0.86855882  0.13387065  0.77689530     0.00800
C1005       C  0.85721534  0.12316289  0.76298819    -0.24500
C1006       C  0.77761260  0.21398329  0.73007239    -0.29000
C1007       C  0.76636310  0.24629394  0.73612827     0.06500
C1008       C  0.77592136  0.25622071  0.75043879    -0.27700
H1009       H  0.80105175  0.15071319  0.72124123     0.11200
H1010       H  0.83527685  0.11076677  0.73573727     0.12400
H1011       H  0.79791461  0.26854704  0.77782864     0.11400
H1012       H  0.83343719  0.22929153  0.79208506     0.10700
H1013       H  0.86666153  0.17472757  0.79374413     0.16100
H1014       H  0.86590420  0.09858496  0.75803886     0.12000
H1015       H  0.77034186  0.20601850  0.71906724     0.14800
H1016       H  0.76740472  0.28110280  0.75518737     0.14600
C1017       C  0.33817224  0.52684979  0.47405479    -0.18300
C1018       C  0.32005977  0.50483348  0.48339818    -0.20400
C1019       C  0.30570127  0.51896733  0.49614296     0.20200
C1020       C  0.30932271  0.55571496  0.49939350    -0.03400
C1021       C  0.32715652  0.57803011  0.48983083    -0.06400
C1022       C  0.34202925  0.56343093  0.47720452     0.20500
C1023       C  0.33069427  0.61475949  0.49309866     0.18700
C1024       C  0.31614991  0.62898418  0.50576758    -0.17900
C1025       C  0.29870100  0.60684254  0.51527745    -0.20100
C1026       C  0.29528367  0.57018295  0.51224991     0.20100
C1027       C  0.27772273  0.54787456  0.52173837    -0.33100
C1028       C  0.27326972  0.51142552  0.51840665     0.00800
C1029       C  0.28751504  0.49710545  0.50560743    -0.24500
C1030       C  0.36157240  0.58532057  0.46833859    -0.29000
C1031       C  0.36652274  0.62160438  0.47196455     0.06500
C1032       C  0.34988897  0.63637419  0.48403912    -0.27700
H1033       H  0.34942642  0.51514224  0.46441033     0.11200
H1034       H  0.31748846  0.47671871  0.48072384     0.12400
H1035       H  0.31869591  0.65710218  0.50843858     0.11400
H1036       H  0.28790769  0.61844231  0.52506099     0.10700
H1037       H  0.26644703  0.55924202  0.53145596     0.16100
H1038       H  0.28413706  0.46905874  0.50293795     0.12000
H1039       H  0.37431987  0.57358859  0.45909888     0.14800
H1040       H  0.35352472  0.66420274  0.48700105     0.14600
C1041       C  0.37662945  0.44781730  0.57952731    -0.18300
C1042       C  0.40889354  0.43746040  0.57987147    -0.20400
C1043       C  0.41758843  0.40182703  0.57698222     0.20200
C1044       C  0.39336668  0.37596170  0.57456482    -0.03400
C1045       C  0.36084307  0.38636234  0.57425900    -0.06400
C1046       C  0.35254345  0.42266531  0.57632309     0.20500
C1047       C  0.33683088  0.36078396  0.57105619     0.18700
C1048       C  0.34536778  0.32487519  0.56876795    -0.17900
C1049       C  0.37757405  0.31458147  0.56904968    -0.20100
C1050       C  0.40170871  0.34008240  0.57160990     0.20100
C1051       C  0.43404543  0.33069029  0.57034619    -0.33100
C1052       C  0.45829299  0.35682871  0.57156396     0.00800
C1053       C  0.44998894  0.39203292  0.57555134    -0.24500
C1054       C  0.32058752  0.43345673  0.57435839    -0.29000
C1055       C  0.29689661  0.40833638  0.57045168     0.06500
C1056       C  0.30495450  0.37188377  0.56939184    -0.27700
H1057       H  0.37061171  0.47571579  0.58128417     0.11200
H1058       H  0.42713690  0.45761350  0.58187452     0.12400
H1059       H  0.32720456  0.30493143  0.56630064     0.11400
H1060       H  0.38366872  0.28692105  0.56678542     0.10700
H1061       H  0.44016674  0.30334539  0.56747209     0.16100
H1062       H  0.46853156  0.41228172  0.57660652     0.12000
H1063       H  0.31437451  0.46156981  0.57526609     0.14800
H1064       H  0.28679291  0.35245959  0.56627418     0.14600
C1065       C  0.03735266  0.24641078  0.77189338    -0.18300
C1066       C  0.04197196  0.28054687  0.76592873    -0.20400
C1067       C  0.02425366  0.29161119  0.75360117     0.20200
C1068       C  0.00195565  0.26790434  0.74709035    -0.03400
C1069       C  0.99737422  0.23341221  0.75308084    -0.06400
C1070       C  0.01497645  0.22280587  0.76561791     0.20500
C1071       C  0.97482918  0.20980156  0.74668268     0.18700
C1072       C  0.95743601  0.22071801  0.73422665    -0.17900
C1073       C  0.96219225  0.25481808  0.72820344    -0.20100
C1074       C  0.98429670  0.27860979  0.73458189     0.20100
C1075       C  0.98958556  0.31260141  0.72848336    -0.33100
C1076       C  0.01227332  0.33605552  0.73473566     0.00800
C1077       C  0.02902864  0.32565023  0.74747011    -0.24500
C1078       C  0.00909299  0.18929103  0.77197968    -0.29000
C1079       C  0.98561967  0.16629352  0.76608690     0.06500
C1080       C  0.96926273  0.17623198  0.75316812    -0.27700
H1081       H  0.05107506  0.23859377  0.78151703     0.11200
H1082       H  0.05935073  0.29832275  0.77097440     0.12400
H1083       H  0.94000046  0.20297182  0.72920267     0.11400
H1084       H  0.94851913  0.26261679  0.71856497     0.10700
H1085       H  0.97677819  0.32037921  0.71858420     0.16100
H1086       H  0.04699950  0.34329489  0.75216732     0.12000
H1087       H  0.02182543  0.18174781  0.78193267     0.14800
H1088       H  0.95090583  0.15878887  0.74866181     0.14600
C1089       C  0.15622733  0.49207263  0.62576284    -0.18300
C1090       C  0.14032611  0.49176586  0.63938666    -0.20400
C1091       C  0.12109225  0.46250532  0.64350011     0.20200
C1092       C  0.11811731  0.43309094  0.63378742    -0.03400
C1093       C  0.13378830  0.43364440  0.61992942    -0.06400
C1094       C  0.15297839  0.46325217  0.61590363     0.20500
C1095       C  0.13020700  0.40457078  0.61011563     0.18700
C1096       C  0.11135137  0.37507511  0.61429716    -0.17900
C1097       C  0.09623419  0.37427703  0.62807729    -0.20100
C1098       C  0.09942135  0.40314278  0.63789581     0.20100
C1099       C  0.08412550  0.40262580  0.65170867    -0.33100
C1100       C  0.08637466  0.43212493  0.66128490     0.00800
C1101       C  0.10474507  0.46208253  0.65710313    -0.24500
C1102       C  0.16858087  0.46352403  0.60212140    -0.29000
C1103       C  0.16501222  0.43469650  0.59220040     0.06500
C1104       C  0.14561035  0.40539989  0.59633079    -0.27700
H1105       H  0.17091968  0.51497793  0.62289882     0.11200
H1106       H  0.14309368  0.51449308  0.64672639     0.12400
H1107       H  0.10836443  0.35247541  0.60690817     0.11400
H1108       H  0.08191810  0.35114197  0.63102876     0.10700
H1109       H  0.06987332  0.37959402  0.65491567     0.16100
H1110       H  0.10668288  0.48473164  0.66454766     0.12000
H1111       H  0.18342284  0.48622805  0.59911439     0.14800
H1112       H  0.14277239  0.38290246  0.58887434     0.14600
C1113       C  0.94744058  0.51635129  0.77355313    -0.18300
C1114       C  0.92720398  0.53873579  0.78177856    -0.20400
C1115       C  0.91422885  0.56989195  0.77548894     0.20200
C1116       C  0.92253231  0.57904651  0.76086968    -0.03400
C1117       C  0.94254356  0.55618516  0.75249334    -0.06400
C1118       C  0.95484352  0.52452470  0.75881838     0.20500
C1119       C  0.94974706  0.56474056  0.73770270     0.18700
C1120       C  0.93755768  0.59638696  0.73153543    -0.17900
C1121       C  0.91798242  0.61913551  0.73983930    -0.20100
C1122       C  0.91009772  0.61050931  0.75445435     0.20100
C1123       C  0.88893249  0.63211535  0.76251551    -0.33100
C1124       C  0.87894641  0.62213218  0.77675906     0.00800
C1125       C  0.89219579  0.59131408  0.78330244    -0.24500
C1126       C  0.97411008  0.50150642  0.75027492    -0.29000
C1127       C  0.98112507  0.50965673  0.73543209     0.06500
C1128       C  0.96884860  0.54146529  0.72930444    -0.27700
H1129       H  0.95685644  0.49233070  0.77863505     0.11200
H1130       H  0.92133201  0.53136766  0.79302206     0.12400
H1131       H  0.94295290  0.60343949  0.72020187     0.11400
H1132       H  0.90856154  0.64314558  0.73475390     0.10700
H1133       H  0.87858360  0.65550763  0.75729023     0.16100
H1134       H  0.88456645  0.58341124  0.79426057     0.12000
H1135       H  0.98368783  0.47733896  0.75519512     0.14800
H1136       H  0.97429419  0.54830019  0.71795411     0.14600
C1137       C  0.87050106  0.44619265  0.68462630    -0.18300
C1138       C  0.83864573  0.43446152  0.68486966    -0.20400
C1139       C  0.83152902  0.39771706  0.68469705     0.20200
C1140       C  0.85666458  0.37248590  0.68391848    -0.03400
C1141       C  0.88878073  0.38431879  0.68353082    -0.06400
C1142       C  0.89571491  0.42132535  0.68411506     0.20500
C1143       C  0.91394761  0.35907054  0.68311365     0.18700
C1144       C  0.90681008  0.32233102  0.68286302    -0.17900
C1145       C  0.87497446  0.31058325  0.68337368    -0.20100
C1146       C  0.84977960  0.33543665  0.68407054     0.20100
C1147       C  0.81792594  0.32388383  0.68548679    -0.33100
C1148       C  0.79290266  0.34893304  0.68670962     0.00800
C1149       C  0.79981353  0.38576027  0.68589499    -0.24500
C1150       C  0.92772216  0.43276358  0.68477950    -0.29000
C1151       C  0.95286992  0.40765459  0.68485092     0.06500
C1152       C  0.94579710  0.37093861  0.68358995    -0.27700
H1153       H  0.87543470  0.47465760  0.68508751     0.11200
H1154       H  0.81957211  0.45415340  0.68551325     0.12400
H1155       H  0.92590934  0.30261645  0.68259011     0.11400
H1156       H  0.87008054  0.28208834  0.68347888     0.10700
H1157       H  0.81272823  0.29546947  0.68612440     0.16100
H1158       H  0.78065678  0.40525074  0.68698982     0.12000
H1159       H  0.93300244  0.46109073  0.68580530     0.14800
H1160       H  0.96503595  0.35137578  0.68382972     0.14600
C1161       C  0.38581812  0.89615638  0.31447421    -0.18300
C1162       C  0.37854901  0.85987404  0.31331378    -0.20400
C1163       C  0.36869945  0.84550086  0.29979393     0.20200
C1164       C  0.36619076  0.86767395  0.28726118    -0.03400
C1165       C  0.37413597  0.90422780  0.28836823    -0.06400
C1166       C  0.38387603  0.91835289  0.30205884     0.20500
C1167       C  0.37279291  0.92647659  0.27579613     0.18700
C1168       C  0.36224533  0.91205664  0.26234224    -0.17900
C1169       C  0.35340840  0.87587353  0.26133522    -0.20100
C1170       C  0.35553521  0.85338367  0.27371176     0.20100
C1171       C  0.34614352  0.81722798  0.27297961    -0.33100
C1172       C  0.34751905  0.79558103  0.28565755     0.00800
C1173       C  0.36009572  0.80957315  0.29879520    -0.24500
C1174       C  0.39290019  0.95412033  0.30305403    -0.29000
C1175       C  0.39425785  0.97581339  0.29041849     0.06500
C1176       C  0.38319727  0.96225815  0.27685828    -0.27700
H1177       H  0.39342592  0.90675109  0.32502715     0.11200
H1178       H  0.38031972  0.84309948  0.32303691     0.12400
H1179       H  0.36091402  0.92873480  0.25258312     0.11400
H1180       H  0.34509069  0.86544824  0.25087604     0.10700
H1181       H  0.33606521  0.80662114  0.26287212     0.16100
H1182       H  0.36126197  0.79294731  0.30859392     0.12000
H1183       H  0.40105392  0.96429065  0.31360474     0.14800
H1184       H  0.38403088  0.97892020  0.26707984     0.14600
C1185       C  0.29914526  0.13525916  0.25360654    -0.18300
C1186       C  0.27944286  0.15637445  0.24466429    -0.20400
C1187       C  0.28030669  0.19385999  0.24573238     0.20200
C1188       C  0.30083158  0.21029090  0.25611284    -0.03400
C1189       C  0.32087859  0.18899265  0.26508073    -0.06400
C1190       C  0.32017513  0.15134457  0.26372645     0.20500
C1191       C  0.34218824  0.20541903  0.27511767     0.18700
C1192       C  0.34275284  0.24290474  0.27630839    -0.17900
C1193       C  0.32256810  0.26402513  0.26757218    -0.20100
C1194       C  0.30164355  0.24798008  0.25738952     0.20100
C1195       C  0.28164818  0.26896806  0.24841181    -0.33100
C1196       C  0.26153934  0.25272315  0.23790873     0.00800
C1197       C  0.26109983  0.21521681  0.23659284    -0.24500
C1198       C  0.34143749  0.13044905  0.27204569    -0.29000
C1199       C  0.36390050  0.14670559  0.28151954     0.06500
C1200       C  0.36341913  0.18415597  0.28332733    -0.27700
H1201       H  0.29833515  0.10642741  0.25243757     0.11200
H1202       H  0.26365414  0.14332909  0.23680218     0.12400
H1203       H  0.35907194  0.25598413  0.28392871     0.11400
H1204       H  0.32354851  0.29286426  0.26866338     0.10700
H1205       H  0.28200740  0.29788085  0.24943556     0.16100
H1206       H  0.24524212  0.20261694  0.22863322     0.12000
H1207       H  0.34164964  0.10166414  0.27052544     0.14800
H1208       H  0.38081249  0.19700270  0.29049669     0.14600
C1209       C  0.37743763  0.90501932  0.43746551    -0.18300
C1210       C  0.38431709  0.86865059  0.43644071    -0.20400
C1211       C  0.38693623  0.84785976  0.44921892     0.20200
C1212       C  0.38240621  0.86359368  0.46320479    -0.03400
C1213       C  0.37488636  0.90024021  0.46423187    -0.06400
C1214       C  0.37258976  0.92088518  0.45127763     0.20500
C1215       C  0.36927610  0.91610663  0.47813307     0.18700
C1216       C  0.37218867  0.89514016  0.49091533    -0.17900
C1217       C  0.38058455  0.85884421  0.48992011    -0.20100
C1218       C  0.38562899  0.84280796  0.47610042     0.20100
C1219       C  0.39480579  0.80671883  0.47490101    -0.33100
C1220       C  0.40041179  0.79145606  0.46093467     0.00800
C1221       C  0.39515494  0.81186391  0.44819573    -0.24500
C1222       C  0.36414295  0.95679977  0.45222317    -0.29000
C1223       C  0.35608350  0.97225306  0.46583381     0.06500
C1224       C  0.35967324  0.95220479  0.47886333    -0.27700
H1225       H  0.37549379  0.92065367  0.42744921     0.11200
H1226       H  0.38791412  0.85684490  0.42564290     0.12400
H1227       H  0.36796379  0.90680563  0.50168326     0.11400
H1228       H  0.38301663  0.84331624  0.49993195     0.10700
H1229       H  0.39894770  0.79111549  0.48478418     0.16100
H1230       H  0.39932224  0.80032160  0.43738606     0.12000
H1231       H  0.36175906  0.97216897  0.44213931     0.14800
H1232       H  0.35330778  0.96397428  0.48939070     0.14600
C1233       C  0.30907181  0.24039026  0.51431242    -0.18300
C1234       C  0.30262906  0.27465770  0.51977744    -0.20400
C1235       C  0.27503192  0.29317503  0.51528289     0.20200
C1236       C  0.25399596  0.27738400  0.50495718    -0.03400
C1237       C  0.26033268  0.24271897  0.49955219    -0.06400
C1238       C  0.28791100  0.22406463  0.50432941     0.20500
C1239       C  0.23909515  0.22676760  0.48936331     0.18700
C1240       C  0.21176146  0.24549915  0.48468554    -0.17900
C1241       C  0.20537324  0.27980756  0.49011332    -0.20100
C1242       C  0.22628799  0.29592040  0.50026381     0.20100
C1243       C  0.21934991  0.32964669  0.50623688    -0.33100
C1244       C  0.23929100  0.34449517  0.51711525     0.00800
C1245       C  0.26744088  0.32659809  0.52134348    -0.24500
C1246       C  0.29421177  0.18975327  0.49878170    -0.29000
C1247       C  0.27363107  0.17429387  0.48831147     0.06500
C1248       C  0.24594750  0.19268868  0.48378622    -0.27700
H1249       H  0.33049576  0.22657069  0.51795697     0.11200
H1250       H  0.31906417  0.28653143  0.52765245     0.12400
H1251       H  0.19529006  0.23358790  0.47684005     0.11400
H1252       H  0.18395060  0.29362754  0.48646544     0.10700
H1253       H  0.19734206  0.34321716  0.50316777     0.16100
H1254       H  0.28273892  0.33810098  0.52978974     0.12000
H1255       H  0.31599310  0.17592577  0.50198844     0.14800
H1256       H  0.23026052  0.18085927  0.47557164     0.14600
C1257       C  0.39701574  0.13884461  0.37515173    -0.18300
C1258       C  0.38302866  0.13834565  0.38912317    -0.20400
C1259       C  0.36735313  0.10749229  0.39423886     0.20200
C1260       C  0.36554197  0.07683581  0.38518249    -0.03400
C1261       C  0.38017284  0.07714903  0.37112352    -0.06400
C1262       C  0.39588097  0.10841074  0.36612221     0.20500
C1263       C  0.37933529  0.04624908  0.36214166     0.18700
C1264       C  0.36292066  0.01566969  0.36716999    -0.17900
C1265       C  0.34793659  0.01557745  0.38103710    -0.20100
C1266       C  0.34935193  0.04590835  0.39020913     0.20100
C1267       C  0.33511433  0.04594840  0.40432103    -0.33100
C1268       C  0.33740678  0.07637794  0.41349824     0.00800
C1269       C  0.35356993  0.10694017  0.40829372    -0.24500
C1270       C  0.41044133  0.10870122  0.35223436    -0.29000
C1271       C  0.41055142  0.07791774  0.34339602     0.06500
C1272       C  0.39506118  0.04660103  0.34836783    -0.27700
H1273       H  0.40901993  0.16303212  0.37145264     0.11200
H1274       H  0.38448864  0.16210611  0.39594140     0.12400
H1275       H  0.36175153  0.99181137  0.36040376     0.11400
H1276       H  0.33551213  0.99160635  0.38465242     0.10700
H1277       H  0.32263826  0.02226342  0.40821567     0.16100
H1278       H  0.35519043  0.13065219  0.41515209     0.12000
H1279       H  0.42246052  0.13277563  0.34839319     0.14800
H1280       H  0.39486279  0.02293518  0.34144521     0.14600
C1281       C  0.45023211  0.13811229  0.50642663    -0.18300
C1282       C  0.46894305  0.16116190  0.51504389    -0.20400
C1283       C  0.46878655  0.19821817  0.51242962     0.20200
C1284       C  0.45038750  0.21214121  0.50071179    -0.03400
C1285       C  0.43146058  0.18886355  0.49200840    -0.06400
C1286       C  0.43101140  0.15176063  0.49503098     0.20500
C1287       C  0.41221828  0.20288591  0.48060508     0.18700
C1288       C  0.41283088  0.23984439  0.47771451    -0.17900
C1289       C  0.43181423  0.26286967  0.48623846    -0.20100
C1290       C  0.45040149  0.24936129  0.49787625     0.20100
C1291       C  0.46875104  0.27241246  0.50680204    -0.33100
C1292       C  0.48652657  0.25873620  0.51871447     0.00800
C1293       C  0.48648936  0.22159654  0.52138940    -0.24500
C1294       C  0.41027197  0.12917402  0.48708447    -0.29000
C1295       C  0.38959652  0.14326779  0.47626183     0.06500
C1296       C  0.39163854  0.17999118  0.47274919    -0.27700
H1297       H  0.45028674  0.10973139  0.50886145     0.11200
H1298       H  0.48321512  0.14999984  0.52392484     0.12400
H1299       H  0.39819287  0.25107408  0.46898198     0.11400
H1300       H  0.43158347  0.29129207  0.48387134     0.10700
H1301       H  0.46894019  0.30094216  0.50459622     0.16100
H1302       H  0.50074501  0.21074314  0.53034668     0.12000
H1303       H  0.40891073  0.10103233  0.48993241     0.14800
H1304       H  0.37581208  0.19126037  0.46447320     0.14600
C1305       C  0.45234695  0.23325964  0.23876182    -0.18300
C1306       C  0.45910750  0.26632722  0.23226173    -0.20400
C1307       C  0.48444098  0.28750628  0.23752989     0.20200
C1308       C  0.50319866  0.27536935  0.24947527    -0.03400
C1309       C  0.49645678  0.24193311  0.25599971    -0.06400
C1310       C  0.47089505  0.22084522  0.25060143     0.20500
C1311       C  0.51506502  0.22978071  0.26799587     0.18700
C1312       C  0.54056007  0.25089915  0.27318410    -0.17900
C1313       C  0.54742362  0.28397606  0.26663551    -0.20100
C1314       C  0.52875277  0.29653412  0.25484350     0.20100
C1315       C  0.53555442  0.32953943  0.24813416    -0.33100
C1316       C  0.51739327  0.34124311  0.23600788     0.00800
C1317       C  0.49171123  0.32029664  0.23087403    -0.24500
C1318       C  0.46381934  0.18806157  0.25733337    -0.29000
C1319       C  0.48153033  0.17634781  0.26958188     0.06500
C1320       C  0.50737060  0.19710636  0.27476048    -0.27700
H1321       H  0.43257265  0.21743175  0.23455567     0.11200
H1322       H  0.44452263  0.27533072  0.22308387     0.12400
H1323       H  0.55514003  0.24188987  0.28236311     0.11400
H1324       H  0.56724562  0.29975868  0.27080803     0.10700
H1325       H  0.55580534  0.34530425  0.25190555     0.16100
H1326       H  0.47782474  0.32918209  0.22144189     0.12000
H1327       H  0.44356334  0.17245034  0.25344951     0.14800
H1328       H  0.52101843  0.18819535  0.28425947     0.14600
C1329       C  0.43568493  0.62955077  0.24281652    -0.18300
C1330       C  0.45581431  0.60694145  0.23471770    -0.20400
C1331       C  0.45870439  0.57061051  0.23845445     0.20200
C1332       C  0.44157930  0.55698302  0.25064193    -0.03400
C1333       C  0.42113115  0.57978653  0.25879347    -0.06400
C1334       C  0.41802318  0.61616013  0.25478982     0.20500
C1335       C  0.40330890  0.56599920  0.27073696     0.18700
C1336       C  0.40662937  0.52976477  0.27461163    -0.17900
C1337       C  0.42717036  0.50725602  0.26664559    -0.20100
C1338       C  0.44459629  0.52052372  0.25457676     0.20100
C1339       C  0.46483902  0.49797927  0.24633829    -0.33100
C1340       C  0.48157323  0.51132459  0.23403836     0.00800
C1341       C  0.47833423  0.54767316  0.23019799    -0.24500
C1342       C  0.39653790  0.63827321  0.26249297    -0.29000
C1343       C  0.37764553  0.62440992  0.27403582     0.06500
C1344       C  0.38176158  0.58838320  0.27828377    -0.27700
H1345       H  0.43359749  0.65736719  0.23960105     0.11200
H1346       H  0.46897657  0.61787257  0.22542628     0.12400
H1347       H  0.39309650  0.51871032  0.28375775     0.11400
H1348       H  0.42917818  0.47940015  0.26983044     0.10700
H1349       H  0.46734004  0.47005726  0.24939635     0.16100
H1350       H  0.49160078  0.55834051  0.22088174     0.12000
H1351       H  0.39345956  0.66582646  0.25902935     0.14800
H1352       H  0.36725083  0.57730076  0.28710370     0.14600
C1353       C  0.37619363  0.31127390  0.19107692    -0.18300
C1354       C  0.40831822  0.32197378  0.19037969    -0.20400
C1355       C  0.41626969  0.35763427  0.18711212     0.20200
C1356       C  0.39165116  0.38264904  0.18424342    -0.03400
C1357       C  0.35923137  0.37181738  0.18488356    -0.06400
C1358       C  0.35152290  0.33607633  0.18847850     0.20500
C1359       C  0.33455292  0.39703426  0.18241390     0.18700
C1360       C  0.34256035  0.43261271  0.17902898    -0.17900
C1361       C  0.37468695  0.44342216  0.17848842    -0.20100
C1362       C  0.39936110  0.41877253  0.18128221     0.20100
C1363       C  0.43148793  0.42993545  0.18178835    -0.33100
C1364       C  0.45597701  0.40536938  0.18510984     0.00800
C1365       C  0.44829702  0.36907015  0.18730522    -0.24500
C1366       C  0.31929070  0.32599362  0.18989208    -0.29000
C1367       C  0.29452561  0.35120998  0.18788270     0.06500
C1368       C  0.30236341  0.38651624  0.18385913    -0.27700
H1369       H  0.37063317  0.28376258  0.19387802     0.11200
H1370       H  0.42694299  0.30249026  0.19268803     0.12400
H1371       H  0.32391391  0.45231162  0.17708376     0.11400
H1372       H  0.38021839  0.47120289  0.17616276     0.10700
H1373       H  0.43734682  0.45794701  0.18012559     0.16100
H1374       H  0.46706650  0.35012095  0.19009798     0.12000
H1375       H  0.31356509  0.29870894  0.19302306     0.14800
H1376       H  0.28347409  0.40618168  0.18239326     0.14600
C1377       C  0.70139258  0.27742420  0.98557248    -0.18300
C1378       C  0.70846944  0.24358674  0.97986703    -0.20400
C1379       C  0.73432936  0.22375626  0.98544249     0.20200
C1380       C  0.75355116  0.23814457  0.99678337    -0.03400
C1381       C  0.74655679  0.27233489  0.00247616    -0.06400
C1382       C  0.72019771  0.29193350  0.99691988     0.20500
C1383       C  0.76554048  0.28656705  0.01393366     0.18700
C1384       C  0.79170897  0.26698032  0.01935660    -0.17900
C1385       C  0.79882305  0.23315175  0.01362388    -0.20100
C1386       C  0.77972293  0.21838346  0.00242608     0.20100
C1387       C  0.78675500  0.18454977  0.99653740    -0.33100
C1388       C  0.76814261  0.17064474  0.98497012     0.00800
C1389       C  0.74173101  0.19010887  0.97966093    -0.24500
C1390       C  0.71230258  0.32503483  0.00321444    -0.29000
C1391       C  0.73010338  0.33821726  0.01516189     0.06500
C1392       C  0.75723572  0.31948917  0.02014931    -0.27700
H1393       H  0.68110078  0.29206552  0.98122916     0.11200
H1394       H  0.69359420  0.23284702  0.97108938     0.12400
H1395       H  0.80651928  0.27767967  0.02816282     0.11400
H1396       H  0.81909411  0.21848736  0.01797841     0.10700
H1397       H  0.80757533  0.16994351  0.00039624     0.16100
H1398       H  0.72750722  0.17948909  0.97062724     0.12000
H1399       H  0.69117380  0.33928773  0.99949015     0.14800
H1400       H  0.77104675  0.32979990  0.02937506     0.14600
C1401       C  0.60972757  0.49486319  0.13054486    -0.18300
C1402       C  0.62499050  0.49402277  0.11680961    -0.20400
C1403       C  0.63566548  0.46141938  0.11085970     0.20200
C1404       C  0.63075183  0.42932191  0.11878087    -0.03400
C1405       C  0.61593430  0.43028092  0.13275375    -0.06400
C1406       C  0.60523258  0.46321351  0.13863743     0.20500
C1407       C  0.61191718  0.39830545  0.14084078     0.18700
C1408       C  0.62210526  0.36561700  0.13479921    -0.17900
C1409       C  0.63623399  0.36458917  0.12083487    -0.20100
C1410       C  0.64077116  0.39625717  0.11277693     0.20100
C1411       C  0.65535769  0.39550628  0.09887432    -0.33100
C1412       C  0.66101369  0.42744150  0.09112915     0.00800
C1413       C  0.65125021  0.46033070  0.09715858    -0.24500
C1414       C  0.59030948  0.46385221  0.15250573    -0.29000
C1415       C  0.58670090  0.43213646  0.16069066     0.06500
C1416       C  0.59770652  0.39951880  0.15481703    -0.27700
H1417       H  0.60163950  0.52037648  0.13489657     0.11200
H1418       H  0.62842107  0.51883902  0.11083766     0.12400
H1419       H  0.61906668  0.34085681  0.14085713     0.11400
H1420       H  0.64385115  0.33900436  0.11637883     0.10700
H1421       H  0.66305479  0.37015463  0.09420703     0.16100
H1422       H  0.65535840  0.48490101  0.09107238     0.12000
H1423       H  0.58189587  0.48906722  0.15702924     0.14800
H1424       H  0.59462357  0.37493204  0.16101689     0.14600
C1425       C  0.81879599  0.61798402  0.01008085    -0.18300
C1426       C  0.79894814  0.59560031  0.01842239    -0.20400
C1427       C  0.78976589  0.56189747  0.01303139     0.20200
C1428       C  0.80032923  0.55077281  0.99898008    -0.03400
C1429       C  0.82068613  0.57328047  0.99058778    -0.06400
C1430       C  0.83000431  0.60694331  0.99621876     0.20500
C1431       C  0.83231181  0.56176342  0.97675801     0.18700
C1432       C  0.82248250  0.52831834  0.97124907    -0.17900
C1433       C  0.80187021  0.50624433  0.97945536    -0.20100
C1434       C  0.79094839  0.51702847  0.99342465     0.20100
C1435       C  0.77104430  0.49462526  0.00197578    -0.33100
C1436       C  0.76082569  0.50538857  0.01612219     0.00800
C1437       C  0.77033784  0.53913972  0.02149283    -0.24500
C1438       C  0.85127664  0.62854920  0.98817735    -0.29000
C1439       C  0.86437687  0.61665814  0.97473085     0.06500
C1440       C  0.85430482  0.58339546  0.96896489    -0.27700
H1441       H  0.82578550  0.64370177  0.01456711     0.11200
H1442       H  0.79092704  0.60461433  0.02917971     0.12400
H1443       H  0.83100970  0.51902409  0.96062016     0.11400
H1444       H  0.79485140  0.48054019  0.97497133     0.10700
H1445       H  0.76371897  0.46881362  0.99767227     0.16100
H1446       H  0.76230964  0.54800077  0.03227067     0.12000
H1447       H  0.85905396  0.65382461  0.99284868     0.14800
H1448       H  0.86431284  0.57387787  0.95864635     0.14600
C1449       C  0.87250641  0.30788929  0.06960530    -0.18300
C1450       C  0.84028254  0.31837393  0.06919382    -0.20400
C1451       C  0.83208689  0.35479207  0.06839906     0.20200
C1452       C  0.85661060  0.38093325  0.06825417    -0.03400
C1453       C  0.88908299  0.37038392  0.06877620    -0.06400
C1454       C  0.89705844  0.33367304  0.06929630     0.20500
C1455       C  0.91355510  0.39655969  0.06833951     0.18700
C1456       C  0.90540439  0.43294247  0.06746421    -0.17900
C1457       C  0.87325407  0.44338472  0.06686852    -0.20100
C1458       C  0.84874913  0.41759084  0.06717687     0.20100
C1459       C  0.81657407  0.42783182  0.06597428    -0.33100
C1460       C  0.79201955  0.40195939  0.06576369     0.00800
C1461       C  0.79990084  0.36549977  0.06727081    -0.24500
C1462       C  0.92942044  0.32339032  0.06899227    -0.29000
C1463       C  0.95388525  0.34937050  0.06823277     0.06500
C1464       C  0.94574828  0.38588805  0.06824978    -0.27700
H1465       H  0.87823266  0.27960152  0.06997941     0.11200
H1466       H  0.82176990  0.29795161  0.06926548     0.12400
H1467       H  0.92393128  0.45333436  0.06702099     0.11400
H1468       H  0.86755929  0.47161414  0.06598933     0.10700
H1469       H  0.81072519  0.45597629  0.06477861     0.16100
H1470       H  0.78113188  0.34536824  0.06692717     0.12000
H1471       H  0.93553384  0.29516675  0.06886535     0.14800
H1472       H  0.96443299  0.40604008  0.06738469     0.14600
C1473       C  0.20710462  0.40373815  0.98866777    -0.18300
C1474       C  0.18829234  0.38194921  0.99773215    -0.20400
C1475       C  0.17069415  0.39690046  0.00939136     0.20200
C1476       C  0.17245280  0.43407979  0.01210364    -0.03400
C1477       C  0.19165428  0.45606101  0.00300201    -0.06400
C1478       C  0.20876725  0.44077400  0.99114225     0.20500
C1479       C  0.19351423  0.49327706  0.00567579     0.18700
C1480       C  0.17596816  0.50817938  0.01738251    -0.17900
C1481       C  0.15651050  0.48643975  0.02625947    -0.20100
C1482       C  0.15452034  0.44938594  0.02369329     0.20100
C1483       C  0.13409526  0.42755621  0.03214633    -0.33100
C1484       C  0.13128636  0.39062686  0.02912359     0.00800
C1485       C  0.15046161  0.37541833  0.01800242    -0.24500
C1486       C  0.22732187  0.46272681  0.98198529    -0.29000
C1487       C  0.22968619  0.49968480  0.98466666     0.06500
C1488       C  0.21288007  0.51484396  0.99659157    -0.27700
H1489       H  0.22026898  0.39158410  0.97964257     0.11200
H1490       H  0.18714544  0.35348543  0.99550084     0.12400
H1491       H  0.17706371  0.53665933  0.01958500     0.11400
H1492       H  0.14283524  0.49868065  0.03509256     0.10700
H1493       H  0.11924864  0.43966902  0.04060486     0.16100
H1494       H  0.14837697  0.34713222  0.01548525     0.12000
H1495       H  0.24070310  0.45082769  0.97296276     0.14800
H1496       H  0.21476517  0.54333584  0.99872661     0.14600
C1497       C  0.12159168  0.56041091  0.92991371    -0.18300
C1498       C  0.08942469  0.57101469  0.92975708    -0.20400
C1499       C  0.08131995  0.60749364  0.92987661     0.20200
C1500       C  0.10588792  0.63357001  0.92952700    -0.03400
C1501       C  0.13840711  0.62285097  0.92963839    -0.06400
C1502       C  0.14619390  0.58610514  0.93018001     0.20500
C1503       C  0.16303762  0.64887759  0.92995220     0.18700
C1504       C  0.15489400  0.68535979  0.92951937    -0.17900
C1505       C  0.12266257  0.69599174  0.92946482    -0.20100
C1506       C  0.09800442  0.67031448  0.92981186     0.20100
C1507       C  0.06573801  0.68068883  0.93118861    -0.33100
C1508       C  0.04123924  0.65478087  0.93232416     0.00800
C1509       C  0.04917821  0.61827085  0.93110647    -0.24500
C1510       C  0.17830036  0.57567562  0.93174559    -0.29000
C1511       C  0.20286652  0.60141712  0.93293367     0.06500
C1512       C  0.19518364  0.63797822  0.93146591    -0.27700
H1513       H  0.12720902  0.53208043  0.93025523     0.11200
H1514       H  0.07086724  0.55065720  0.92998060     0.12400
H1515       H  0.17345452  0.70572197  0.92967631     0.11400
H1516       H  0.11703215  0.72431847  0.92957750     0.10700
H1517       H  0.05984998  0.70889855  0.93203729     0.16100
H1518       H  0.03053961  0.59810197  0.93202773     0.12000
H1519       H  0.18400036  0.54743034  0.93272050     0.14800
H1520       H  0.21393988  0.65801025  0.93239362     0.14600
C1521       C  0.37957479  0.63748013  0.86874626    -0.18300
C1522       C  0.36529727  0.63749392  0.88265652    -0.20400
C1523       C  0.35755236  0.60509784  0.88962110     0.20200
C1524       C  0.36454766  0.57224673  0.88262169    -0.03400
C1525       C  0.37951151  0.57221882  0.86869205    -0.06400
C1526       C  0.38665234  0.60503194  0.86167493     0.20500
C1527       C  0.38719458  0.53944729  0.86177006     0.18700
C1528       C  0.37960421  0.50703343  0.86881511    -0.17900
C1529       C  0.36414354  0.50705033  0.88252264    -0.20100
C1530       C  0.35641781  0.53951703  0.88949345     0.20100
C1531       C  0.34063751  0.53994158  0.90317633    -0.33100
C1532       C  0.33386526  0.57268826  0.91016609     0.00800
C1533       C  0.34269659  0.60503508  0.90341726    -0.24500
C1534       C  0.40078480  0.60491654  0.84770558    -0.29000
C1535       C  0.40869215  0.57248827  0.84080020     0.06500
C1536       C  0.40220837  0.53980872  0.84792237    -0.27700
H1537       H  0.38509366  0.66282850  0.86352014     0.11200
H1538       H  0.36004061  0.66291486  0.88792339     0.12400
H1539       H  0.38536560  0.48162745  0.86365657     0.11400
H1540       H  0.35825206  0.48171933  0.88767030     0.10700
H1541       H  0.33405678  0.51497409  0.90848015     0.16100
H1542       H  0.33727612  0.63030483  0.90878831     0.12000
H1543       H  0.40629811  0.63011519  0.84232265     0.14800
H1544       H  0.40841745  0.51474565  0.84257884     0.14600
C1545       C  0.59306015  0.47988664  0.72883116    -0.18300
C1546       C  0.57364436  0.50241275  0.73728947    -0.20400
C1547       C  0.55440860  0.48821704  0.74855215     0.20200
C1548       C  0.55473992  0.45097560  0.75133052    -0.03400
C1549       C  0.57415389  0.42823579  0.74272677    -0.06400
C1550       C  0.59344666  0.44285017  0.73147038     0.20500
C1551       C  0.57470425  0.39102341  0.74556492     0.18700
C1552       C  0.55551772  0.37686323  0.75685995    -0.17900
C1553       C  0.53621741  0.39941668  0.76538441    -0.20100
C1554       C  0.53580800  0.43646412  0.76275080     0.20100
C1555       C  0.51664940  0.45923509  0.77126732    -0.33100
C1556       C  0.51575675  0.49623043  0.76837412     0.00800
C1557       C  0.53472738  0.51059199  0.75703017    -0.24500
C1558       C  0.61366999  0.42038308  0.72339462    -0.29000
C1559       C  0.61554057  0.38353940  0.72660441     0.06500
C1560       C  0.59531324  0.36885684  0.73743495    -0.27700
H1561       H  0.60796019  0.49149507  0.72027002     0.11200
H1562       H  0.57373862  0.53091117  0.73505861     0.12400
H1563       H  0.55568990  0.34840424  0.75919693     0.11400
H1564       H  0.52169029  0.38788679  0.77409449     0.10700
H1565       H  0.50175623  0.44799507  0.77992203     0.16100
H1566       H  0.53411392  0.53911230  0.75480198     0.12000
H1567       H  0.62927903  0.43207222  0.71511688     0.14800
H1568       H  0.59679012  0.34057370  0.74006847     0.14600
C1569       C  0.65510210  0.56623139  0.81659271    -0.18300
C1570       C  0.62314415  0.55485867  0.81665714    -0.20400
C1571       C  0.59826671  0.57960204  0.81890272     0.20200
C1572       C  0.60564306  0.61592640  0.82156744    -0.03400
C1573       C  0.63786739  0.62742884  0.82140935    -0.06400
C1574       C  0.66265189  0.60248791  0.81872300     0.20500
C1575       C  0.64515011  0.66411508  0.82323322     0.18700
C1576       C  0.62033710  0.68867128  0.82586988    -0.17900
C1577       C  0.58839319  0.67721648  0.82612868    -0.20100
C1578       C  0.58077429  0.64106410  0.82369300     0.20100
C1579       C  0.54872768  0.62996390  0.82258564    -0.33100
C1580       C  0.54123500  0.59420290  0.81910767     0.00800
C1581       C  0.56613297  0.56894112  0.81778178    -0.24500
C1582       C  0.69434705  0.61452299  0.81748038    -0.29000
C1583       C  0.70143214  0.65124215  0.81843045     0.06500
C1584       C  0.67691653  0.67580775  0.82168044    -0.27700
H1585       H  0.67387599  0.54678226  0.81447717     0.11200
H1586       H  0.61783802  0.52690223  0.81459709     0.12400
H1587       H  0.62557053  0.71687940  0.82736153     0.11400
H1588       H  0.56957137  0.69682380  0.82781352     0.10700
H1589       H  0.52970993  0.64963487  0.82357587     0.16100
H1590       H  0.56060435  0.54130916  0.81512720     0.12000
H1591       H  0.71320389  0.59556317  0.81480474     0.14800
H1592       H  0.68241205  0.70415371  0.82245126     0.14600
C1593       C  0.60134612  0.14975516  0.51400385    -0.18300
C1594       C  0.61064669  0.11369184  0.51398254    -0.20400
C1595       C  0.62389351  0.09807663  0.52666842     0.20200
C1596       C  0.62759521  0.11904773  0.53952745    -0.03400
C1597       C  0.61873923  0.15544568  0.53948352    -0.06400
C1598       C  0.60548457  0.17089263  0.52667046     0.20500
C1599       C  0.62291707  0.17627597  0.55233283     0.18700
C1600       C  0.63577706  0.16073986  0.56507382    -0.17900
C1601       C  0.64438944  0.12467907  0.56514199    -0.20100
C1602       C  0.64038015  0.10374911  0.55243635     0.20100
C1603       C  0.64973286  0.06794979  0.55238359    -0.33100
C1604       C  0.64757988  0.04713741  0.53947749     0.00800
C1605       C  0.63417666  0.06218646  0.52668069    -0.24500
C1606       C  0.59585703  0.20691210  0.52691233    -0.29000
C1607       C  0.59918510  0.22732154  0.53985747     0.06500
C1608       C  0.61334565  0.21204808  0.55238081    -0.27700
H1609       H  0.59100406  0.16113095  0.50411209     0.11200
H1610       H  0.60750981  0.09801598  0.50402587     0.12400
H1611       H  0.63900166  0.17643615  0.57502460     0.11400
H1612       H  0.65432780  0.11319090  0.57510179     0.10700
H1613       H  0.66015173  0.05682794  0.56232197     0.16100
H1614       H  0.63254557  0.04635532  0.51668709     0.12000
H1615       H  0.58435898  0.21846774  0.51731669     0.14800
H1616       H  0.61577157  0.22769666  0.56240295     0.14600
C1617       C  0.55218147  0.76485886  0.51920782    -0.18300
C1618       C  0.57071977  0.78822875  0.52780018    -0.20400
C1619       C  0.58003392  0.82180817  0.52227488     0.20200
C1620       C  0.57009659  0.83213470  0.50802343    -0.03400
C1621       C  0.55186736  0.80832785  0.49926227    -0.06400
C1622       C  0.54288031  0.77450561  0.50486974     0.20500
C1623       C  0.54291789  0.81828770  0.48483846     0.18700
C1624       C  0.55179832  0.85203044  0.47937827    -0.17900
C1625       C  0.56960732  0.87569490  0.48807996    -0.20100
C1626       C  0.57903625  0.86590021  0.50236492     0.20100
C1627       C  0.59844074  0.88870368  0.51080094    -0.33100
C1628       C  0.61015863  0.87775721  0.52462855     0.00800
C1629       C  0.60016702  0.84461222  0.53046355    -0.24500
C1630       C  0.52465150  0.75104793  0.49606991    -0.29000
C1631       C  0.51548477  0.76091822  0.48168244     0.06500
C1632       C  0.52505412  0.79449383  0.47614793    -0.27700
H1633       H  0.54541253  0.73907865  0.52371873     0.11200
H1634       H  0.57805202  0.77986094  0.53873127     0.12400
H1635       H  0.54503030  0.86011654  0.46832976     0.11400
H1636       H  0.57641400  0.90145151  0.48355762     0.10700
H1637       H  0.60630640  0.91392347  0.50610052     0.16100
H1638       H  0.60920610  0.83589376  0.54107828     0.12000
H1639       H  0.51731118  0.72533691  0.50048068     0.14800
H1640       H  0.51798225  0.80255585  0.46513334     0.14600
C1641       C  0.63804001  0.13420025  0.73859162    -0.18300
C1642       C  0.62798295  0.09839582  0.73782708    -0.20400
C1643       C  0.61894122  0.08320682  0.72429113     0.20200
C1644       C  0.62048598  0.10422825  0.71137262    -0.03400
C1645       C  0.63009333  0.14041488  0.71217625    -0.06400
C1646       C  0.63892289  0.15555521  0.72585119     0.20500
C1647       C  0.63083219  0.16141936  0.69926400     0.18700
C1648       C  0.62244727  0.14618160  0.68567651    -0.17900
C1649       C  0.61316583  0.11033003  0.68486544    -0.20100
C1650       C  0.61190844  0.08930023  0.69765416     0.20100
C1651       C  0.60105357  0.05397350  0.69698022    -0.33100
C1652       C  0.59748010  0.03344732  0.70988749     0.00800
C1653       C  0.60733497  0.04786478  0.72348075    -0.24500
C1654       C  0.64909511  0.19150444  0.72644754    -0.29000
C1655       C  0.65050391  0.21225062  0.71350682     0.06500
C1656       C  0.64062406  0.19712758  0.70005767    -0.27700
H1657       H  0.64492492  0.14526334  0.74916514     0.11200
H1658       H  0.62706315  0.08265400  0.74785427     0.12400
H1659       H  0.62310546  0.16200094  0.67566278     0.11400
H1660       H  0.60657544  0.09917384  0.67426518     0.10700
H1661       H  0.59371495  0.04316619  0.68641270     0.16100
H1662       H  0.60468871  0.03222515  0.73347628     0.12000
H1663       H  0.65713566  0.20280945  0.73681139     0.14800
H1664       H  0.64169269  0.21285183  0.69001399     0.14600
C1665       C  0.50691560  0.79759358  0.76977902    -0.18300
C1666       C  0.50298393  0.76507218  0.77719072    -0.20400
C1667       C  0.49872193  0.73316471  0.76919872     0.20200
C1668       C  0.49855564  0.73393322  0.75368580    -0.03400
C1669       C  0.50236864  0.76678666  0.74625013    -0.06400
C1670       C  0.50662140  0.79882593  0.75435825     0.20500
C1671       C  0.50191370  0.76759194  0.73074102     0.18700
C1672       C  0.49812183  0.73562422  0.72274243    -0.17900
C1673       C  0.49418155  0.70309828  0.73015231    -0.20100
C1674       C  0.49402067  0.70195638  0.74557991     0.20100
C1675       C  0.48834291  0.66978251  0.75308180    -0.33100
C1676       C  0.48728325  0.66911260  0.76852813     0.00800
C1677       C  0.49352071  0.70071225  0.77653468    -0.24500
C1678       C  0.51106651  0.83123999  0.74685629    -0.29000
C1679       C  0.51099985  0.83212278  0.73141906     0.06500
C1680       C  0.50584203  0.80026158  0.72341745    -0.27700
H1681       H  0.51018545  0.82202547  0.77620311     0.11200
H1682       H  0.50303078  0.76483537  0.78905914     0.12400
H1683       H  0.49804019  0.73586861  0.71087262     0.11400
H1684       H  0.49087312  0.67868416  0.72373255     0.10700
H1685       H  0.48356705  0.64541018  0.74686493     0.16100
H1686       H  0.49254385  0.70051737  0.78843245     0.12000
H1687       H  0.51531472  0.85578332  0.75305284     0.14800
H1688       H  0.50633232  0.80057727  0.71151316     0.14600
C1689       C  0.63816864  0.99678284  0.61992816    -0.18300
C1690       C  0.62209589  0.99565548  0.63347492    -0.20400
C1691       C  0.61209705  0.96278340  0.63944579     0.20200
C1692       C  0.61899153  0.93067457  0.63185196    -0.03400
C1693       C  0.63461987  0.93187730  0.61806715    -0.06400
C1694       C  0.64411213  0.96512360  0.61203118     0.20500
C1695       C  0.64015156  0.89985273  0.61020120     0.18700
C1696       C  0.63128648  0.86687094  0.61641077    -0.17900
C1697       C  0.61634983  0.86563937  0.63018792    -0.20100
C1698       C  0.60973853  0.89736390  0.63789346     0.20100
C1699       C  0.59359511  0.89640157  0.65141967    -0.33100
C1700       C  0.58569952  0.92829428  0.65877204     0.00800
C1701       C  0.59503009  0.96142237  0.65277911    -0.24500
C1702       C  0.65871037  0.96609577  0.59807871    -0.29000
C1703       C  0.66288738  0.93437022  0.58994826     0.06500
C1704       C  0.65392051  0.90136396  0.59614460    -0.27700
H1705       H  0.64541072  0.02252015  0.61549010     0.11200
H1706       H  0.61727003  0.02050056  0.63922496     0.12400
H1707       H  0.63562513  0.84207004  0.61054847     0.11400
H1708       H  0.60947305  0.83985608  0.63471157     0.10700
H1709       H  0.58632159  0.87084511  0.65604862     0.16100
H1710       H  0.58928069  0.98599863  0.65857400     0.12000
H1711       H  0.66581879  0.99156427  0.59332953     0.14800
H1712       H  0.65775033  0.87680723  0.59000885     0.14600
C1713       C  0.65016854  0.76607603  0.72640550    -0.18300
C1714       C  0.66997971  0.74485233  0.73531236    -0.20400
C1715       C  0.68867802  0.76045921  0.74647474     0.20200
C1716       C  0.68767518  0.79793482  0.74856040    -0.03400
C1717       C  0.66809272  0.81941608  0.73942468    -0.06400
C1718       C  0.64898377  0.80339098  0.72840670     0.20500
C1719       C  0.66715418  0.85686747  0.74154753     0.18700
C1720       C  0.68600666  0.87251992  0.75261957    -0.17900
C1721       C  0.70520911  0.85127238  0.76172709    -0.20100
C1722       C  0.70599678  0.81395522  0.75986882     0.20100
C1723       C  0.72485000  0.79246061  0.76912435    -0.33100
C1724       C  0.72628283  0.75518808  0.76702711     0.00800
C1725       C  0.70832025  0.73937818  0.75560504    -0.24500
C1726       C  0.62824910  0.82479303  0.71992543    -0.29000
C1727       C  0.62632716  0.86206376  0.72237037     0.06500
C1728       C  0.64656393  0.87788365  0.73293516    -0.27700
H1729       H  0.63564438  0.75331364  0.71803319     0.11200
H1730       H  0.67042088  0.71609706  0.73355327     0.12400
H1731       H  0.68555632  0.90128234  0.75439131     0.11400
H1732       H  0.71928478  0.86397968  0.77028002     0.10700
H1733       H  0.73909983  0.80483682  0.77772307     0.16100
H1734       H  0.70949167  0.71062584  0.75390382     0.12000
H1735       H  0.61260686  0.81221005  0.71192237     0.14800
H1736       H  0.64519147  0.90649606  0.73499381     0.14600
C1737       C  0.78872735  0.73279547  0.51517644    -0.18300
C1738       C  0.78239813  0.76701585  0.52074382    -0.20400
C1739       C  0.75884499  0.78872051  0.51422158     0.20200
C1740       C  0.74137737  0.77588862  0.50202093    -0.03400
C1741       C  0.74770583  0.74126918  0.49643350    -0.06400
C1742       C  0.77162550  0.71967784  0.50300229     0.20500
C1743       C  0.73044598  0.72850100  0.48415483     0.18700
C1744       C  0.70668440  0.75010824  0.47771989    -0.17900
C1745       C  0.70023414  0.78429714  0.48334076    -0.20100
C1746       C  0.71750906  0.79755311  0.49544822     0.20100
C1747       C  0.71077770  0.83160171  0.50136049    -0.33100
C1748       C  0.72742224  0.84397619  0.51383771     0.00800
C1749       C  0.75192192  0.82265858  0.51995935    -0.24500
C1750       C  0.77881125  0.68594976  0.49695685    -0.29000
C1751       C  0.76278137  0.67384729  0.48427613     0.06500
C1752       C  0.73799164  0.69487345  0.47820723    -0.27700
H1753       H  0.80721086  0.71667151  0.52033835     0.11200
H1754       H  0.79591031  0.77650077  0.53015900     0.12400
H1755       H  0.69323306  0.74065127  0.46827540     0.11400
H1756       H  0.68172088  0.80040359  0.47819643     0.10700
H1757       H  0.69149770  0.84757433  0.49675809     0.16100
H1758       H  0.76482375  0.83194295  0.52960698     0.12000
H1759       H  0.79817065  0.67013033  0.50158213     0.14800
H1760       H  0.72546743  0.68571856  0.46843168     0.14600
C1761       C  0.68950777  0.50943824  0.51949310    -0.18300
C1762       C  0.66995603  0.48797430  0.52841887    -0.20400
C1763       C  0.66351940  0.45228879  0.52452397     0.20200
C1764       C  0.67729775  0.43798213  0.51157588    -0.03400
C1765       C  0.69664988  0.45979135  0.50244814    -0.06400
C1766       C  0.70273415  0.49568878  0.50642949     0.20500
C1767       C  0.70956548  0.44578450  0.48925877     0.18700
C1768       C  0.70351064  0.40996294  0.48546770    -0.17900
C1769       C  0.68452347  0.38829739  0.49454495    -0.20100
C1770       C  0.67113194  0.40215051  0.50755208     0.20100
C1771       C  0.65067019  0.38115691  0.51626699    -0.33100
C1772       C  0.63540732  0.39572642  0.52876708     0.00800
C1773       C  0.64262746  0.43109797  0.53302368    -0.24500
C1774       C  0.72183702  0.51725669  0.49726861    -0.29000
C1775       C  0.73462618  0.50361035  0.48403747     0.06500
C1776       C  0.72827266  0.46782895  0.48010745    -0.27700
H1777       H  0.69398508  0.53692171  0.52272030     0.11200
H1778       H  0.65960510  0.49943037  0.53831890     0.12400
H1779       H  0.71332496  0.39871695  0.47540874     0.11400
H1780       H  0.67993054  0.36086603  0.49128472     0.10700
H1781       H  0.64515962  0.35407884  0.51277144     0.16100
H1782       H  0.63089329  0.44267700  0.54256972     0.12000
H1783       H  0.72667111  0.54473956  0.50042825     0.14800
H1784       H  0.73836468  0.45691910  0.47004136     0.14600
C1785       C  0.62257102  0.56470959  0.43102841    -0.18300
C1786       C  0.59052085  0.57558464  0.43028966    -0.20400
C1787       C  0.58270222  0.61213999  0.43022215     0.20200
C1788       C  0.60740163  0.63803841  0.43062554    -0.03400
C1789       C  0.63969197  0.62709230  0.43129269    -0.06400
C1790       C  0.64726985  0.59025781  0.43165555     0.20500
C1791       C  0.66431381  0.65303200  0.43205505     0.18700
C1792       C  0.65651669  0.68956960  0.43203063    -0.17900
C1793       C  0.62449266  0.70042200  0.43145764    -0.20100
C1794       C  0.59981986  0.67487562  0.43086966     0.20100
C1795       C  0.56768166  0.68553096  0.43115571    -0.33100
C1796       C  0.54299588  0.65986276  0.43133259     0.00800
C1797       C  0.55062933  0.62325315  0.43041414    -0.24500
C1798       C  0.67934267  0.57965582  0.43308390    -0.29000
C1799       C  0.70388007  0.60544029  0.43409038     0.06500
C1800       C  0.69624181  0.64201591  0.43330041    -0.27700
H1801       H  0.62802155  0.53635090  0.43131492     0.11200
H1802       H  0.57181265  0.55538480  0.43004825     0.12400
H1803       H  0.67517901  0.70976705  0.43269097     0.11400
H1804       H  0.61899584  0.72878087  0.43170728     0.10700
H1805       H  0.56192249  0.71379883  0.43189853     0.16100
H1806       H  0.53168833  0.60330943  0.43073899     0.12000
H1807       H  0.68513070  0.55139743  0.43377306     0.14800
H1808       H  0.71502437  0.66201012  0.43432244     0.14600
C1809       C  0.86389344  0.51993470  0.38045699    -0.18300
C1810       C  0.87942888  0.52047156  0.36676846    -0.20400
C1811       C  0.88699224  0.55312244  0.35990988     0.20200
C1812       C  0.87876750  0.58561537  0.36693003    -0.03400
C1813       C  0.86369918  0.58508909  0.38089472    -0.06400
C1814       C  0.85603518  0.55207808  0.38764344     0.20500
C1815       C  0.85641282  0.61759326  0.38811006     0.18700
C1816       C  0.86359224  0.65025303  0.38118030    -0.17900
C1817       C  0.87790484  0.65078291  0.36722445    -0.20100
C1818       C  0.88568597  0.61863220  0.36002852     0.20100
C1819       C  0.90040742  0.61893885  0.34609622    -0.33100
C1820       C  0.90923822  0.58669541  0.33916762     0.00800
C1821       C  0.90262262  0.55390196  0.34618056    -0.24500
C1822       C  0.84082897  0.55179193  0.40148069    -0.29000
C1823       C  0.83413818  0.58408637  0.40885200     0.06500
C1824       C  0.84211449  0.61684896  0.40211733    -0.27700
H1825       H  0.85824878  0.49438118  0.38547587     0.11200
H1826       H  0.88545482  0.49525606  0.36151129     0.12400
H1827       H  0.85804914  0.67546633  0.38654687     0.11400
H1828       H  0.88309925  0.67633605  0.36210359     0.10700
H1829       H  0.90566063  0.64427127  0.34077411     0.16100
H1830       H  0.90917797  0.52897464  0.34081312     0.12000
H1831       H  0.83481872  0.52649601  0.40666139     0.14800
H1832       H  0.83666552  0.64182790  0.40769837     0.14600
C1833       C  0.04283463  0.41154845  0.26710433    -0.18300
C1834       C  0.06229815  0.38837373  0.25894067    -0.20400
C1835       C  0.07472848  0.39908950  0.24525179     0.20200
C1836       C  0.06648016  0.43290659  0.23946591    -0.03400
C1837       C  0.04646636  0.45617915  0.24765617    -0.06400
C1838       C  0.03519872  0.44568745  0.26167772     0.20500
C1839       C  0.03845960  0.49023809  0.24200320     0.18700
C1840       C  0.04994736  0.50032219  0.22804197    -0.17900
C1841       C  0.07026933  0.47751769  0.22005340    -0.20100
C1842       C  0.07922032  0.44403284  0.22578547     0.20100
C1843       C  0.10182575  0.42226195  0.21848554    -0.33100
C1844       C  0.11146132  0.38931055  0.22462165     0.00800
C1845       C  0.09658609  0.37728903  0.23766693    -0.24500
C1846       C  0.01680758  0.46960174  0.27010491    -0.29000
C1847       C  0.00895959  0.50384094  0.26469095     0.06500
C1848       C  0.01952498  0.51374596  0.25049289    -0.27700
H1849       H  0.03412079  0.40292499  0.27779829     0.11200
H1850       H  0.06833940  0.36246094  0.26351406     0.12400
H1851       H  0.04382980  0.52619875  0.22345296     0.11400
H1852       H  0.07952397  0.48642480  0.20950048     0.10700
H1853       H  0.11297000  0.43168482  0.20840115     0.16100
H1854       H  0.10375765  0.35203694  0.24254103     0.12000
H1855       H  0.00830633  0.46132942  0.28088372     0.14800
H1856       H  0.01333731  0.53985443  0.24612473     0.14600
C1857       C  0.11990923  0.70863957  0.31005119    -0.18300
C1858       C  0.08781582  0.69772298  0.30981505    -0.20400
C1859       C  0.07963563  0.66197138  0.31278162     0.20200
C1860       C  0.10395875  0.63708642  0.31630564    -0.03400
C1861       C  0.13634492  0.64812941  0.31659127    -0.06400
C1862       C  0.14432023  0.68395224  0.31326169     0.20500
C1863       C  0.16079637  0.62301170  0.31963336     0.18700
C1864       C  0.15253990  0.58737430  0.32278914    -0.17900
C1865       C  0.12044638  0.57637714  0.32245517    -0.20100
C1866       C  0.09606045  0.60088606  0.31899380     0.20100
C1867       C  0.06409073  0.58956278  0.31764846    -0.33100
C1868       C  0.03991616  0.61406151  0.31381036     0.00800
C1869       C  0.04772469  0.65036921  0.31174771    -0.24500
C1870       C  0.17661969  0.69413314  0.31252631    -0.29000
C1871       C  0.20120010  0.66885220  0.31479054     0.06500
C1872       C  0.19307565  0.63359119  0.31879315    -0.27700
H1873       H  0.12568666  0.73620665  0.30743272     0.11200
H1874       H  0.06942830  0.71711316  0.30702742     0.12400
H1875       H  0.17100320  0.56775720  0.32517993     0.11400
H1876       H  0.11475789  0.54855259  0.32460885     0.10700
H1877       H  0.05810788  0.56155292  0.31922602     0.16100
H1878       H  0.02919179  0.66924491  0.30856866     0.12000
H1879       H  0.18256959  0.72139388  0.30943867     0.14800
H1880       H  0.21183394  0.61389683  0.32050812     0.14600
C1881       C  0.12785614  0.14637046  0.23802449    -0.18300
C1882       C  0.11815176  0.11051863  0.23714538    -0.20400
C1883       C  0.11129562  0.09484829  0.22344116     0.20200
C1884       C  0.11408011  0.11555132  0.21048836    -0.03400
C1885       C  0.12335358  0.15175854  0.21138749    -0.06400
C1886       C  0.13058203  0.16720361  0.22520661     0.20500
C1887       C  0.12580426  0.17234707  0.19841108     0.18700
C1888       C  0.11894383  0.15682566  0.18470269    -0.17900
C1889       C  0.10991287  0.12091822  0.18379831    -0.20100
C1890       C  0.10743302  0.10015732  0.19662478     0.20100
C1891       C  0.09747506  0.06452597  0.19580891    -0.33100
C1892       C  0.09314624  0.04418172  0.20869677     0.00800
C1893       C  0.10084558  0.05920166  0.22246031    -0.24500
C1894       C  0.14153524  0.20276338  0.22587843    -0.29000
C1895       C  0.14536519  0.22272783  0.21286558     0.06500
C1896       C  0.13625202  0.20774350  0.19928294    -0.27700
H1897       H  0.13334348  0.15775297  0.24870218     0.11200
H1898       H  0.11604406  0.09500937  0.24720897     0.12400
H1899       H  0.12087292  0.17238959  0.17464112     0.11400
H1900       H  0.10473284  0.10944287  0.17310677     0.10700
H1901       H  0.09160210  0.05322225  0.18514626     0.16100
H1902       H  0.09740159  0.04370569  0.23245089     0.12000
H1903       H  0.14873883  0.21411659  0.23635696     0.14800
H1904       H  0.13895526  0.22308434  0.18919507     0.14600
C1905       C  0.03310598  0.75209160  0.26780997    -0.18300
C1906       C  0.03843062  0.78614429  0.26190436    -0.20400
C1907       C  0.02004766  0.79835433  0.24998201     0.20200
C1908       C  0.99611002  0.77598265  0.24388726    -0.03400
C1909       C  0.99080130  0.74158533  0.24980571    -0.06400
C1910       C  0.00930420  0.72974411  0.26186174     0.20500
C1911       C  0.96672605  0.71925708  0.24378767     0.18700
C1912       C  0.94840973  0.73146250  0.23183507    -0.17900
C1913       C  0.95387597  0.76546623  0.22586470    -0.20100
C1914       C  0.97766581  0.78785501  0.23181434     0.20100
C1915       C  0.98395659  0.82149103  0.22562926    -0.33100
C1916       C  0.00848378  0.84337406  0.23134917     0.00800
C1917       C  0.02583602  0.83207601  0.24376073    -0.24500
C1918       C  0.00295093  0.69626637  0.26811232    -0.29000
C1919       C  0.97804948  0.67459525  0.26261715     0.06500
C1920       C  0.96066827  0.68570766  0.25017729    -0.27700
H1921       H  0.04743269  0.74332253  0.27708459     0.11200
H1922       H  0.05701388  0.80292831  0.26665184     0.12400
H1923       H  0.92973897  0.71473531  0.22712693     0.11400
H1924       H  0.93956727  0.77422733  0.21658706     0.10700
H1925       H  0.97057982  0.83009206  0.21601816     0.16100
H1926       H  0.04511115  0.84862722  0.24805554     0.12000
H1927       H  0.01641423  0.68777373  0.27771924     0.14800
H1928       H  0.94114351  0.66927926  0.24604562     0.14600
C1929       C  0.19496992  0.85847161  0.26408187    -0.18300
C1930       C  0.17525944  0.88017184  0.25535944    -0.20400
C1931       C  0.16173389  0.86681901  0.24228734     0.20200
C1932       C  0.16834064  0.83135738  0.23789311    -0.03400
C1933       C  0.18850152  0.80950643  0.24665836    -0.19200
C1934       C  0.20171332  0.82309648  0.25985858     0.20500
C1935       C  0.19527627  0.77406425  0.24225635     0.18700
C1936       C  0.18172385  0.76074993  0.22917583    -0.17900
C1937       C  0.16137962  0.78222061  0.22061826    -0.20100
C1938       C  0.15439552  0.81753397  0.22488817     0.20100
C1939       C  0.13302327  0.83888568  0.21665530    -0.33100
C1940       C  0.12567127  0.87406406  0.22117546     0.00800
C1941       C  0.14091635  0.88801110  0.23381915    -0.24500
C1942       C  0.22158243  0.80120525  0.26854811    -0.29000
C1943       C  0.22892947  0.76597213  0.26414301     0.06500
C1944       C  0.21554798  0.75261695  0.25096513    -0.27700
H1945       H  0.20494719  0.86939887  0.27416362     0.11200
H1946       H  0.17031762  0.90730315  0.25892186     0.12400
H1947       H  0.18667424  0.73362244  0.22561292     0.11400
H1948       H  0.15094889  0.77109221  0.21067313     0.10700
H1949       H  0.12130979  0.82771336  0.20702264     0.16100
H1950       H  0.13527588  0.91484654  0.23756911     0.12000
H1951       H  0.23189599  0.81191622  0.27860048     0.14800
H1952       H  0.22097600  0.72554284  0.24744961     0.14600
C1953       C  0.12233280  0.14975748  0.01193753    -0.18300
C1954       C  0.13258228  0.11396806  0.01129767    -0.20400
C1955       C  0.13522260  0.09345416  0.02423020     0.20200
C1956       C  0.12704818  0.10914593  0.03788340    -0.03400
C1957       C  0.11733126  0.14531709  0.03854942    -0.06400
C1958       C  0.11491724  0.16582768  0.02552393     0.20500
C1959       C  0.11019700  0.16095908  0.05230585     0.18700
C1960       C  0.11208250  0.14042529  0.06520703    -0.17900
C1961       C  0.12137864  0.10461911  0.06453047    -0.20100
C1962       C  0.12918785  0.08892506  0.05097158     0.20100
C1963       C  0.14031162  0.05375066  0.05041670    -0.33100
C1964       C  0.15049612  0.03847593  0.03705762     0.00800
C1965       C  0.14698644  0.05804963  0.02387730    -0.24500
C1966       C  0.10472176  0.20177540  0.02637029    -0.29000
C1967       C  0.09733412  0.21732638  0.04011910     0.06500
C1968       C  0.10078202  0.19675479  0.05300113    -0.27700
H1969       H  0.12049576  0.16497879  0.00179665     0.11200
H1970       H  0.13866091  0.10243530  0.00071736     0.12400
H1971       H  0.10642559  0.15208503  0.07582145     0.11400
H1972       H  0.12296268  0.08932642  0.07467038     0.10700
H1973       H  0.14261182  0.03881155  0.06062366     0.16100
H1974       H  0.15488020  0.04651626  0.01354231     0.12000
H1975       H  0.10176495  0.21726273  0.01635534     0.14800
H1976       H  0.09497376  0.20818952  0.06365242     0.14600
C1977       C  0.21823361  0.75016794  0.97631069    -0.18300
C1978       C  0.21366157  0.78445778  0.98210524    -0.20400
C1979       C  0.22851045  0.79435067  0.99536626     0.20200
C1980       C  0.24805991  0.76941817  0.00288563    -0.03400
C1981       C  0.25257246  0.73480794  0.99706657    -0.06400
C1982       C  0.23769628  0.72530365  0.98368119     0.20500
C1983       C  0.27229565  0.70992008  0.00452507     0.18700
C1984       C  0.28687152  0.71971728  0.01786353    -0.17900
C1985       C  0.28219433  0.75398205  0.02369609    -0.20100
C1986       C  0.26295353  0.77897288  0.01626431     0.20100
C1987       C  0.25757097  0.81298746  0.02220114    -0.33100
C1988       C  0.23706510  0.83743932  0.01508853     0.00800
C1989       C  0.22331532  0.82834086  0.00146781    -0.24500
C1990       C  0.24346150  0.69154917  0.97762305    -0.29000
C1991       C  0.26450976  0.66734356  0.98454281     0.06500
C1992       C  0.27804503  0.67619255  0.99823739    -0.27700
H1993       H  0.20671127  0.74317230  0.96598020     0.11200
H1994       H  0.19849351  0.80318540  0.97624892     0.12400
H1995       H  0.30205467  0.70099087  0.02371889     0.11400
H1996       H  0.29364322  0.76094818  0.03404292     0.10700
H1997       H  0.26825216  0.81983358  0.03274039     0.16100
H1998       H  0.20719283  0.84687694  0.99603480     0.12000
H1999       H  0.23272352  0.68481775  0.96708003     0.14800
H2000       H  0.29439447  0.65773709  0.00357514     0.14600
C2001       C  0.12359334  0.99888403  0.11389982    -0.18300
C2002       C  0.10667412  0.99957118  0.12726329    -0.20400
C2003       C  0.09963803  0.96759862  0.13478137     0.20200
C2004       C  0.10925606  0.93458815  0.12858790    -0.03400
C2005       C  0.12579979  0.93385903  0.11497724    -0.06400
C2006       C  0.13346425  0.96620104  0.10770226     0.20500
C2007       C  0.13495223  0.90075107  0.10874136     0.18700
C2008       C  0.12762775  0.86875530  0.11613747    -0.17900
C2009       C  0.11179681  0.86952934  0.12971835    -0.20100
C2010       C  0.10268951  0.90225049  0.13606915     0.20100
C2011       C  0.08744199  0.90316080  0.14983462    -0.33100
C2012       C  0.07795328  0.93585067  0.15617513     0.00800
C2013       C  0.08359379  0.96800446  0.14845833    -0.24500
C2014       C  0.15097641  0.96519889  0.09443070    -0.29000
C2015       C  0.16002633  0.93221368  0.08816256     0.06500
C2016       C  0.15154149  0.90014650  0.09529057    -0.27700
H2017       H  0.12904445  0.02397981  0.10842706     0.11200
H2018       H  0.09945561  0.02514836  0.13181332     0.12400
H2019       H  0.13447082  0.84314964  0.11149544     0.11400
H2020       H  0.10677073  0.84444165  0.13529643     0.10700
H2021       H  0.08274152  0.87824722  0.15561497     0.16100
H2022       H  0.07631392  0.99328934  0.15328272     0.12000
H2023       H  0.15717495  0.98997389  0.08886440     0.14800
H2024       H  0.15856553  0.87470335  0.09052045     0.14600
C2025       C  0.08094315  0.77849941  0.02650257    -0.18300
C2026       C  0.06034648  0.75626706  0.01840448    -0.20400
C2027       C  0.04755012  0.76780640  0.00490164     0.20200
C2028       C  0.05528739  0.80231576  0.99961524    -0.03400
C2029       C  0.07574443  0.82494932  0.00789191    -0.06400
C2030       C  0.08892497  0.81283185  0.02132323     0.20500
C2031       C  0.08344522  0.85943111  0.00258464     0.18700
C2032       C  0.07058092  0.87104134  0.98911019    -0.17900
C2033       C  0.05050670  0.84857739  0.98088323    -0.20100
C2034       C  0.04281502  0.81413585  0.98600353     0.20100
C2035       C  0.02285299  0.79138109  0.97775241    -0.33100
C2036       C  0.01478595  0.75697783  0.98296452     0.00800
C2037       C  0.02721928  0.74546258  0.99659875    -0.24500
C2038       C  0.11052052  0.83483379  0.02911093    -0.29000
C2039       C  0.11894375  0.86898249  0.02371256     0.06500
C2040       C  0.10462466  0.88131161  0.01059413    -0.27700
H2041       H  0.09080127  0.76872941  0.03679216     0.11200
H2042       H  0.05464963  0.72988695  0.02265032     0.12400
H2043       H  0.07632030  0.89739661  0.98484959     0.11400
H2044       H  0.04107561  0.85812193  0.97047343     0.10700
H2045       H  0.01319176  0.80073712  0.96735226     0.16100
H2046       H  0.02111097  0.71909301  0.00075371     0.12000
H2047       H  0.12152743  0.82492174  0.03913391     0.14800
H2048       H  0.11119458  0.90730060  0.00618922     0.14600
C2049       C  0.11809548  0.65092111  0.56704859    -0.18300
C2050       C  0.12894835  0.61558513  0.56696006    -0.20400
C2051       C  0.13802456  0.59922320  0.55369150     0.20200
C2052       C  0.13639988  0.61861812  0.54037570    -0.03400
C2053       C  0.12532486  0.65436874  0.54046568    -0.06400
C2054       C  0.11608065  0.67041124  0.55387834     0.20500
C2055       C  0.12308268  0.67384533  0.52716794     0.18700
C2056       C  0.13266614  0.65748462  0.51393055    -0.17900
C2057       C  0.14402954  0.62209931  0.51386836    -0.20100
C2058       C  0.14575590  0.60229300  0.52701178     0.20100
C2059       C  0.15697806  0.56668075  0.52711536    -0.33100
C2060       C  0.15890906  0.54739716  0.54043889     0.00800
C2061       C  0.14905271  0.56389315  0.55361223    -0.24500
C2062       C  0.10414152  0.70534910  0.55390109    -0.29000
C2063       C  0.10043475  0.72460134  0.54067952     0.06500
C2064       C  0.11054252  0.70891316  0.52733441    -0.27700
H2065       H  0.11099818  0.66293412  0.57743457     0.11200
H2066       H  0.13020222  0.60102982  0.57726523     0.12400
H2067       H  0.13121443  0.67197581  0.50361987     0.11400
H2068       H  0.15127107  0.61013055  0.50350191     0.10700
H2069       H  0.16507152  0.55440031  0.51694298     0.16100
H2070       H  0.15061191  0.54943318  0.56394680     0.12000
H2071       H  0.09647863  0.71701681  0.56427208     0.14800
H2072       H  0.10765230  0.72341236  0.51708064     0.14600
C2073       C  0.19157537  0.88771443  0.49952873    -0.18300
C2074       C  0.21292701  0.90928815  0.49166469    -0.20400
C2075       C  0.21678417  0.94551338  0.49534906     0.20200
C2076       C  0.19948337  0.96010700  0.50728896    -0.03400
C2077       C  0.17764533  0.93835648  0.51517114    -0.06400
C2078       C  0.17358155  0.90209866  0.51117157     0.20500
C2079       C  0.15926279  0.95309372  0.52673955     0.18700
C2080       C  0.16375541  0.98920211  0.53062911    -0.17900
C2081       C  0.18578312  0.01067565  0.52294750    -0.20100
C2082       C  0.20350370  0.99651358  0.51112583     0.20100
C2083       C  0.22470850  0.01814124  0.50289333    -0.33100
C2084       C  0.24121721  0.00383785  0.49067735     0.00800
C2085       C  0.23727920  0.96745160  0.48713043    -0.24500
C2086       C  0.15073944  0.88106962  0.51846347    -0.29000
C2087       C  0.13107873  0.89587598  0.52948503     0.06500
C2088       C  0.13599306  0.93177570  0.53380991    -0.27700
H2089       H  0.18868986  0.85995316  0.49633159     0.11200
H2090       H  0.22620021  0.89767817  0.48254910     0.12400
H2091       H  0.14992555  0.00099961  0.53951273     0.11400
H2092       H  0.18855192  0.03848404  0.52608576     0.10700
H2093       H  0.22774384  0.04613268  0.50573327     0.16100
H2094       H  0.25034045  0.95604072  0.47790187     0.12000
H2095       H  0.14713356  0.85359886  0.51496196     0.14800
H2096       H  0.12091768  0.94351875  0.54226930     0.14600
C2097       C  0.92022468  0.64472131  0.51114077    -0.18300
C2098       C  0.93968571  0.66707669  0.51967042    -0.20400
C2099       C  0.95116087  0.69952038  0.51391764     0.20200
C2100       C  0.94282137  0.70968113  0.49943132    -0.03400
C2101       C  0.92287058  0.68726134  0.49085253    -0.06400
C2102       C  0.91171307  0.65460216  0.49674290     0.20500
C2103       C  0.91372109  0.69775328  0.47649562     0.18700
C2104       C  0.92527629  0.73023172  0.47076011    -0.17900
C2105       C  0.94551065  0.75219398  0.47917467    -0.20100
C2106       C  0.95429793  0.74224567  0.49354939     0.20100
C2107       C  0.97444362  0.76417260  0.50211798    -0.33100
C2108       C  0.98308121  0.75403239  0.51654465     0.00800
C2109       C  0.97100489  0.72180452  0.52237248    -0.24500
C2110       C  0.89146013  0.63278019  0.48832836    -0.29000
C2111       C  0.88111355  0.64359346  0.47425032     0.06500
C2112       C  0.89255962  0.67602066  0.46833298    -0.27700
H2113       H  0.91162552  0.61984332  0.51584004     0.11200
H2114       H  0.94584408  0.65890742  0.53078725     0.12400
H2115       H  0.91857259  0.73874061  0.45975842     0.11400
H2116       H  0.95411574  0.77707195  0.47447637     0.10700
H2117       H  0.98353711  0.78897232  0.49751908     0.16100
H2118       H  0.97747664  0.71366861  0.53345747     0.12000
H2119       H  0.88227482  0.60823712  0.49312796     0.14800
H2120       H  0.88442341  0.68468091  0.45755521     0.14600
C2121       C  0.86853858  0.81432359  0.55778612    -0.18300
C2122       C  0.83652748  0.82537114  0.55760959    -0.20400
C2123       C  0.82842557  0.86055858  0.56154087     0.20200
C2124       C  0.85266873  0.88476280  0.56591856    -0.03400
C2125       C  0.88491334  0.87351311  0.56623656    -0.06400
C2126       C  0.89286650  0.83825044  0.56199932     0.20500
C2127       C  0.90925938  0.89787630  0.57034079     0.18700
C2128       C  0.90107870  0.93301550  0.57434562    -0.17900
C2129       C  0.86911303  0.94428628  0.57389824    -0.20100
C2130       C  0.84482602  0.92051367  0.56952118     0.20100
C2131       C  0.81300463  0.93213342  0.56820665    -0.33100
C2132       C  0.78899493  0.90822932  0.56361916     0.00800
C2133       C  0.79665719  0.87232704  0.56066942    -0.24500
C2134       C  0.92509781  0.82787160  0.56156220    -0.29000
C2135       C  0.94958508  0.85235704  0.56516265     0.06500
C2136       C  0.94142990  0.88707039  0.56985477    -0.27700
H2137       H  0.87431621  0.78720746  0.55445638     0.11200
H2138       H  0.81816377  0.80657297  0.55416295     0.12400
H2139       H  0.91949692  0.95201553  0.57753996     0.11400
H2140       H  0.86344808  0.97174921  0.57675289     0.10700
H2141       H  0.80698331  0.95986127  0.57045067     0.16100
H2142       H  0.77813556  0.85403032  0.55691315     0.12000
H2143       H  0.93113696  0.80110917  0.55783960     0.14800
H2144       H  0.96015925  0.90615943  0.57256058     0.14600
C2145       C  0.13374425  0.60089061  0.68704980    -0.18300
C2146       C  0.14279072  0.63678241  0.68636755    -0.20400
C2147       C  0.14185909  0.65809737  0.69908648     0.20200
C2148       C  0.13205351  0.64324148  0.71263910    -0.03400
C2149       C  0.12265940  0.60704805  0.71328915    -0.06400
C2150       C  0.12341586  0.58595769  0.70038626     0.20500
C2151       C  0.11186972  0.59219134  0.72671197     0.18700
C2152       C  0.11144130  0.61352998  0.73946747    -0.17900
C2153       C  0.12137188  0.64937291  0.73886230    -0.20100
C2154       C  0.13151124  0.66455713  0.72549716     0.20100
C2155       C  0.14159600  0.70041427  0.72473422    -0.33100
C2156       C  0.15181426  0.71510135  0.71125274     0.00800
C2157       C  0.15118335  0.69391263  0.69844513    -0.24500
C2158       C  0.11246996  0.55075031  0.70086934    -0.29000
C2159       C  0.09967825  0.53646025  0.71390126     0.06500
C2160       C  0.10043639  0.55676226  0.72696549    -0.27700
H2161       H  0.13434322  0.58490542  0.67704026     0.11200
H2162       H  0.15045987  0.64786553  0.67594188     0.12400
H2163       H  0.10323564  0.60260272  0.74983435     0.11400
H2164       H  0.12087582  0.66533658  0.74886895     0.10700
H2165       H  0.14225285  0.71657511  0.73468036     0.16100
H2166       H  0.15921684  0.70480677  0.68802218     0.12000
H2167       H  0.11215034  0.53503607  0.69078364     0.14800
H2168       H  0.09039249  0.54587701  0.73701500     0.14600
C2169       C  0.13500668  0.89627846  0.63178033    -0.18300
C2170       C  0.11977955  0.89702520  0.61803669    -0.20400
C2171       C  0.10959357  0.86511098  0.61130840     0.20200
C2172       C  0.11523461  0.83204086  0.61839743    -0.03400
C2173       C  0.13111731  0.83122387  0.63213474    -0.06400
C2174       C  0.14061816  0.86353253  0.63894585     0.20500
C2175       C  0.13725773  0.79807821  0.63909472     0.18700
C2176       C  0.12733655  0.76617035  0.63230338    -0.17900
C2177       C  0.11108832  0.76701296  0.61882411    -0.20100
C2178       C  0.10483151  0.79978541  0.61181503     0.20100
C2179       C  0.08832111  0.80082581  0.59835401    -0.33100
C2180       C  0.08273995  0.83362630  0.59120141     0.00800
C2181       C  0.09371701  0.86563621  0.59767313    -0.24500
C2182       C  0.15539907  0.86251585  0.65283329    -0.29000
C2183       C  0.16158234  0.82956031  0.65979354     0.06500
C2184       C  0.15292023  0.79746149  0.65277517    -0.27700
H2185       H  0.14233441  0.92127540  0.63681443     0.11200
H2186       H  0.11568783  0.92265099  0.61272839     0.12400
H2187       H  0.13186781  0.74049940  0.63750038     0.11400
H2188       H  0.10340900  0.74203070  0.61387872     0.10700
H2189       H  0.08024232  0.77606513  0.59332210     0.16100
H2190       H  0.08940102  0.89102969  0.59220509     0.12000
H2191       H  0.16249968  0.88728687  0.65815344     0.14800
H2192       H  0.15768623  0.77204688  0.65815135     0.14600
C2193       C  0.06012543  0.87761607  0.75646442    -0.18300
C2194       C  0.04153594  0.90008332  0.76535843    -0.20400
C2195       C  0.03756742  0.93632126  0.76169063     0.20200
C2196       C  0.05165863  0.94985107  0.74868087    -0.03400
C2197       C  0.07050524  0.92722252  0.73972797    -0.06400
C2198       C  0.07512907  0.89109124  0.74376936     0.20500
C2199       C  0.08566769  0.94110768  0.72704458     0.18700
C2200       C  0.08079944  0.97704487  0.72310169    -0.17900
C2201       C  0.06179182  0.99937554  0.73187256    -0.20100
C2202       C  0.04753280  0.98616355  0.74479261     0.20100
C2203       C  0.02947006  0.00871278  0.75395275    -0.33100
C2204       C  0.01586374  0.99556470  0.76707526     0.00800
C2205       C  0.01995658  0.95931507  0.77083773    -0.24500
C2206       C  0.09602807  0.86957270  0.73551575    -0.29000
C2207       C  0.11305259  0.88400323  0.72350262     0.06500
C2208       C  0.10671745  0.91935582  0.71898066    -0.27700
H2209       H  0.06338052  0.84994084  0.75969438     0.11200
H2210       H  0.03062674  0.88919970  0.77525119     0.12400
H2211       H  0.09220755  0.98809930  0.71336427     0.11400
H2212       H  0.05871683  0.02711846  0.72869922     0.10700
H2213       H  0.02614760  0.03654171  0.75091219     0.16100
H2214       H  0.00895366  0.94881299  0.78078268     0.12000
H2215       H  0.10074935  0.84239995  0.73910857     0.14800
H2216       H  0.11962450  0.93067019  0.70969436     0.14600
C2217       C  0.30854308  0.66206395  0.73025241    -0.18300
C2218       C  0.32799714  0.63952112  0.73868132    -0.20400
C2219       C  0.33721675  0.64949416  0.75298486     0.20200
C2220       C  0.32668599  0.68236764  0.75889045    -0.03400
C2221       C  0.30675341  0.70500683  0.75039955    -0.06400
C2222       C  0.29778663  0.69480129  0.73598847     0.20500
C2223       C  0.29591079  0.73780771  0.75628767     0.18700
C2224       C  0.30526640  0.74775272  0.77059973    -0.17900
C2225       C  0.32546495  0.72555168  0.77892085    -0.20100
C2226       C  0.33642957  0.69284256  0.77317144     0.20100
C2227       C  0.35755761  0.67084059  0.78123263    -0.33100
C2228       C  0.36854172  0.63823309  0.77527253     0.00800
C2229       C  0.35754999  0.62748620  0.76127051    -0.24500
C2230       C  0.27802226  0.71731293  0.72760570    -0.29000
C2231       C  0.26658450  0.74981071  0.73342227     0.06500
C2232       C  0.27578624  0.75995668  0.74779715    -0.27700
H2233       H  0.30185079  0.65380010  0.71919574     0.11200
H2234       H  0.33605034  0.61446415  0.73398077     0.12400
H2235       H  0.29714861  0.77277724  0.77530942     0.11400
H2236       H  0.33261679  0.73408279  0.78987400     0.10700
H2237       H  0.36606917  0.67949389  0.79195945     0.16100
H2238       H  0.36615426  0.60276668  0.75643393     0.12000
H2239       H  0.27098532  0.70906214  0.71659578     0.14800
H2240       H  0.26710618  0.78487857  0.75242109     0.14600
C2241       C  0.40387279  0.82011221  0.67772884    -0.18300
C2242       C  0.37172345  0.80948390  0.67799988    -0.20400
C2243       C  0.34722898  0.83524020  0.67820486     0.20200
C2244       C  0.35505741  0.87197481  0.67737175    -0.03400
C2245       C  0.38747196  0.88268421  0.67717011    -0.06400
C2246       C  0.41196279  0.85660724  0.67767642     0.20500
C2247       C  0.39532893  0.91947611  0.67733079     0.18700
C2248       C  0.37079909  0.94517678  0.67684363    -0.17900
C2249       C  0.33864140  0.93453943  0.67695688    -0.20100
C2250       C  0.33057053  0.89808485  0.67762761     0.20100
C2251       C  0.29863723  0.88737863  0.67950128    -0.33100
C2252       C  0.29103998  0.85101458  0.68149689     0.00800
C2253       C  0.31522336  0.82498476  0.68016227    -0.24500
C2254       C  0.44398681  0.86749521  0.67897374    -0.29000
C2255       C  0.45175176  0.90404768  0.68015122     0.06500
C2256       C  0.42744794  0.92992367  0.67880878    -0.27700
H2257       H  0.42243280  0.79977916  0.67806495     0.11200
H2258       H  0.36605055  0.78119623  0.67855482     0.12400
H2259       H  0.37647631  0.97349800  0.67685707     0.11400
H2260       H  0.32008850  0.95489289  0.67706954     0.10700
H2261       H  0.28003752  0.90756837  0.68043830     0.16100
H2262       H  0.30941649  0.79685059  0.68148545     0.12000
H2263       H  0.46263758  0.84740526  0.68006270     0.14800
H2264       H  0.43336863  0.95814538  0.67961089     0.14600
C2265       C  0.37448014  0.39477630  0.98724901    -0.18300
C2266       C  0.38650654  0.35970358  0.98709656    -0.20400
C2267       C  0.38945217  0.34080751  0.97377418     0.20200
C2268       C  0.38009497  0.35744790  0.96048865    -0.03400
C2269       C  0.36824604  0.39286560  0.96063285    -0.06400
C2270       C  0.36535865  0.41168841  0.97407834     0.20500
C2271       C  0.35930487  0.40940007  0.94729593     0.18700
C2272       C  0.36192972  0.39054573  0.93397551    -0.17900
C2273       C  0.37361554  0.35552639  0.93383632    -0.20100
C2274       C  0.38289415  0.33886655  0.94700442     0.20100
C2275       C  0.39561185  0.30423923  0.94683934    -0.33100
C2276       C  0.40592012  0.28776126  0.95993642     0.00800
C2277       C  0.40223643  0.30593455  0.97343061    -0.24500
C2278       C  0.35302928  0.44682374  0.97409276    -0.29000
C2279       C  0.34374255  0.46324944  0.96080048     0.06500
C2280       C  0.34746376  0.44437635  0.94746237    -0.27700
H2281       H  0.37239792  0.40872244  0.99768369     0.11200
H2282       H  0.39360251  0.34739644  0.99739913     0.12400
H2283       H  0.35497781  0.40290764  0.92366165     0.11400
H2284       H  0.37562360  0.34155335  0.92340101     0.10700
H2285       H  0.39830326  0.29043945  0.93638852     0.16100
H2286       H  0.41041905  0.29354598  0.98355402     0.12000
H2287       H  0.34999071  0.46098683  0.98443100     0.14800
H2288       H  0.34032781  0.45655208  0.93712726     0.14600
C2289       C  0.55650884  0.25422022  0.02041871    -0.18300
C2290       C  0.57417014  0.27726725  0.02953601    -0.20400
C2291       C  0.58170273  0.31215314  0.02487165     0.20200
C2292       C  0.57034595  0.32429015  0.01109089    -0.03400
C2293       C  0.55321088  0.30082396  0.00176238    -0.06400
C2294       C  0.54644260  0.26553903  0.00639603     0.20500
C2295       C  0.54342751  0.31252619  0.98767203     0.18700
C2296       C  0.54975773  0.34781093  0.98324386    -0.17900
C2297       C  0.56632837  0.37117703  0.99254485    -0.20100
C2298       C  0.57717438  0.35946774  0.00635895     0.20100
C2299       C  0.59640138  0.38169795  0.01507942    -0.33100
C2300       C  0.61037075  0.36873315  0.02813759     0.00800
C2301       C  0.60185935  0.33442195  0.03329505    -0.24500
C2302       C  0.52974002  0.24227811  0.99692059    -0.29000
C2303       C  0.52014272  0.25379055  0.98279616     0.06500
C2304       C  0.52735825  0.28886256  0.97825780    -0.27700
H2305       H  0.55128650  0.22733905  0.02420798     0.11200
H2306       H  0.58245882  0.26755417  0.04013099     0.12400
H2307       H  0.54213627  0.35727725  0.97250038     0.11400
H2308       H  0.57142157  0.39811250  0.98877101     0.10700
H2309       H  0.60279620  0.40803072  0.01097927     0.16100
H2310       H  0.61239862  0.32430315  0.04339620     0.12000
H2311       H  0.52401139  0.21538498  0.00057220     0.14800
H2312       H  0.51958382  0.29820639  0.96751526     0.14600
C2313       C  0.62689954  0.05791236  0.93293637    -0.18300
C2314       C  0.59467470  0.06785402  0.93202347    -0.20400
C2315       C  0.58629173  0.10358329  0.92922307     0.20200
C2316       C  0.61054468  0.12919843  0.92649457    -0.03400
C2317       C  0.64310079  0.11910928  0.92733401    -0.06400
C2318       C  0.65118693  0.08353367  0.93098333     0.20500
C2319       C  0.66746637  0.14504705  0.92542134     0.18700
C2320       C  0.65899097  0.18037283  0.92182104    -0.17900
C2321       C  0.62667114  0.19046449  0.92109982    -0.20100
C2322       C  0.60233555  0.16533716  0.92392930     0.20100
C2323       C  0.57020528  0.17610431  0.92529908    -0.33100
C2324       C  0.54636305  0.15107493  0.92912084     0.00800
C2325       C  0.55427879  0.11460385  0.93020018    -0.24500
C2326       C  0.68328499  0.07453920  0.93341476    -0.29000
C2327       C  0.70757166  0.10066675  0.93248891     0.06500
C2328       C  0.69965276  0.13560465  0.92794192    -0.27700
H2329       H  0.63280991  0.03044522  0.93566643     0.11200
H2330       H  0.57631674  0.04788189  0.93410751     0.12400
H2331       H  0.67736359  0.20054562  0.92013656     0.11400
H2332       H  0.62075252  0.21820748  0.91891527     0.10700
H2333       H  0.56402743  0.20419752  0.92425681     0.16100
H2334       H  0.53593795  0.09521863  0.93312741     0.12000
H2335       H  0.68912336  0.04741250  0.93673125     0.14800
H2336       H  0.71824771  0.15584890  0.92710959     0.14600
C2337       C  0.31807941  0.00299437  0.98082555    -0.18300
C2338       C  0.33770347  0.02504748  0.97217485    -0.20400
C2339       C  0.34326785  0.06082681  0.97622226     0.20200
C2340       C  0.32876814  0.07456591  0.98909170    -0.03400
C2341       C  0.30927965  0.05218331  0.99792712    -0.06400
C2342       C  0.30382846  0.01626399  0.99374389     0.20500
C2343       C  0.29538667  0.06573116  0.01097212     0.18700
C2344       C  0.30082072  0.10154569  0.01498477    -0.17900
C2345       C  0.31999097  0.12374498  0.00620873    -0.20100
C2346       C  0.33418264  0.11047572  0.99328439     0.20100
C2347       C  0.35459135  0.13214669  0.98479123    -0.33100
C2348       C  0.37034155  0.11821131  0.97231427     0.00800
C2349       C  0.36391025  0.08272119  0.96791921    -0.24500
C2350       C  0.28406936  0.99433219  0.00248872    -0.29000
C2351       C  0.26996397  0.00771331  0.01547785     0.06500
C2352       C  0.27608729  0.04335879  0.01970546    -0.27700
H2353       H  0.31417939  0.97550143  0.97745233     0.11200
H2354       H  0.34870166  0.01401566  0.96234333     0.12400
H2355       H  0.29026127  0.11241167  0.02494851     0.11400
H2356       H  0.32398901  0.15120136  0.00961383     0.10700
H2357       H  0.35960602  0.15926127  0.98840214     0.16100
H2358       H  0.37604664  0.07160806  0.95838602     0.12000
H2359       H  0.27952896  0.96691596  0.99914363     0.14800
H2360       H  0.26511303  0.05403912  0.02961369     0.14600
C2361       C  0.34851326  0.40944902  0.81114455    -0.18300
C2362       C  0.33876480  0.37370874  0.81156119    -0.20400
C2363       C  0.34453604  0.35104286  0.79952780     0.20200
C2364       C  0.35923227  0.36461137  0.78670694    -0.03400
C2365       C  0.36911416  0.40073024  0.78627373    -0.06400
C2366       C  0.36423782  0.42295059  0.79866410     0.20500
C2367       C  0.38492404  0.41420872  0.77368393     0.18700
C2368       C  0.38962036  0.39172860  0.76146193    -0.17900
C2369       C  0.37947856  0.35593067  0.76183081    -0.20100
C2370       C  0.36464723  0.34193173  0.77448006     0.20100
C2371       C  0.35525560  0.30571076  0.77518065    -0.33100
C2372       C  0.34114795  0.29200145  0.78808482     0.00800
C2373       C  0.33594433  0.31499044  0.80015491    -0.24500
C2374       C  0.37664591  0.45773364  0.79871257    -0.29000
C2375       C  0.39422835  0.47052445  0.78661064     0.06500
C2376       C  0.39715277  0.44927784  0.77388132    -0.27700
H2377       H  0.34448459  0.42624194  0.82067946     0.11200
H2378       H  0.32713427  0.36361828  0.82143536     0.12400
H2379       H  0.40169142  0.40167300  0.75168545     0.11400
H2380       H  0.38370125  0.33905316  0.75232765     0.10700
H2381       H  0.35886656  0.28832377  0.76576372     0.16100
H2382       H  0.32438421  0.30502741  0.81006636     0.12000
H2383       H  0.37419011  0.47416727  0.80849024     0.14800
H2384       H  0.41091501  0.45905395  0.76455220     0.14600
C2385       C  0.29743425  0.02413089  0.73760211    -0.18300
C2386       C  0.29139882  0.99010927  0.73181836    -0.20400
C2387       C  0.26598977  0.96931778  0.73726831     0.20200
C2388       C  0.24679734  0.98249783  0.74887240    -0.03400
C2389       C  0.25279220  0.01687319  0.75466782    -0.06400
C2390       C  0.27808235  0.03786816  0.74891379     0.20500
C2391       C  0.23347865  0.03022828  0.76619213     0.18700
C2392       C  0.20841746  0.00913856  0.77182533    -0.17900
C2393       C  0.20226670  0.97513905  0.76597972    -0.20100
C2394       C  0.22122630  0.96166520  0.75445903     0.20100
C2395       C  0.21429565  0.92837374  0.74802623    -0.33100
C2396       C  0.23228260  0.91617526  0.73592511     0.00800
C2397       C  0.25865146  0.93620845  0.73092163    -0.24500
C2398       C  0.28403911  0.07193933  0.75477142    -0.29000
C2399       C  0.26545302  0.08492934  0.76650269     0.06500
C2400       C  0.24000212  0.06414706  0.77205440    -0.27700
H2401       H  0.31709808  0.03976883  0.73318394     0.11200
H2402       H  0.30639191  0.98022841  0.72292714     0.12400
H2403       H  0.19345439  0.01901619  0.78072336     0.11400
H2404       H  0.18254812  0.95954249  0.77036568     0.10700
H2405       H  0.19373994  0.91311888  0.75180067     0.16100
H2406       H  0.27261315  0.92672658  0.72160325     0.12000
H2407       H  0.30415497  0.08752874  0.75072916     0.14800
H2408       H  0.22584454  0.07401221  0.78123736     0.14600
C2409       C  0.37891939  0.11563224  0.88212654    -0.18300
C2410       C  0.36413888  0.11562426  0.86833539    -0.20400
C2411       C  0.35892400  0.14790700  0.86082916     0.20200
C2412       C  0.36864126  0.18064167  0.86723907    -0.03400
C2413       C  0.38411135  0.18059872  0.88104138    -0.06400
C2414       C  0.38905016  0.14792358  0.88852024     0.20500
C2415       C  0.39470493  0.21315083  0.88732720     0.18700
C2416       C  0.38916923  0.24548064  0.87984676    -0.17900
C2417       C  0.37322225  0.24560717  0.86626250    -0.20100
C2418       C  0.36291621  0.21332300  0.85985967     0.20100
C2419       C  0.34701664  0.21302700  0.84621654    -0.33100
C2420       C  0.33784036  0.18035368  0.83975893     0.00800
C2421       C  0.34405231  0.14799938  0.84704370    -0.24500
C2422       C  0.40424894  0.14797723  0.90223183    -0.29000
C2423       C  0.41536444  0.18011574  0.90843984     0.06500
C2424       C  0.41067442  0.21264757  0.90094548    -0.27700
H2425       H  0.38262193  0.09038910  0.88774889     0.11200
H2426       H  0.35666917  0.09031245  0.86355204     0.12400
H2427       H  0.39708109  0.27072620  0.88453053     0.11400
H2428       H  0.36910060  0.27088201  0.86073400     0.10700
H2429       H  0.34225515  0.23797007  0.84051246     0.16100
H2430       H  0.33659023  0.12285363  0.84209089     0.12000
H2431       H  0.40811364  0.12283114  0.90793719     0.14800
H2432       H  0.41911179  0.23750561  0.90579677     0.14600
C2433       C  0.18400093  0.25353710  0.73157542    -0.18300
C2434       C  0.16379989  0.27599109  0.72340127    -0.20400
C2435       C  0.15663407  0.31067604  0.72840444     0.20200
C2436       C  0.17007990  0.32288821  0.74177182    -0.03400
C2437       C  0.19005952  0.30007794  0.75012482    -0.06400
C2438       C  0.19715405  0.26526729  0.74498728     0.20500
C2439       C  0.20280555  0.31211066  0.76365328     0.18700
C2440       C  0.19580551  0.34679979  0.76864426    -0.17900
C2441       C  0.17621261  0.36945789  0.76034068    -0.20100
C2442       C  0.16318890  0.35770383  0.74692330     0.20100
C2443       C  0.14264362  0.37988158  0.73881779    -0.33100
C2444       C  0.12811432  0.36751295  0.72576915     0.00800
C2445       C  0.13562426  0.33301662  0.72051807    -0.24500
C2446       C  0.21732732  0.24289066  0.75332836    -0.29000
C2447       C  0.23009688  0.25479880  0.76683951     0.06500
C2448       C  0.22247141  0.28936466  0.77192928    -0.27700
H2449       H  0.18916427  0.22694032  0.72746215     0.11200
H2450       H  0.15366476  0.26613357  0.71316165     0.12400
H2451       H  0.20548587  0.35644569  0.77901431     0.11400
H2452       H  0.17102239  0.39603747  0.76446541     0.10700
H2453       H  0.13670345  0.40614493  0.74310475     0.16100
H2454       H  0.12432599  0.32311260  0.71054473     0.12000
H2455       H  0.22312061  0.21634414  0.74930597     0.14800
H2456       H  0.23243667  0.29898331  0.78224831     0.14600
C2457       C  0.12459282  0.19440430  0.82033883    -0.18300
C2458       C  0.09253484  0.18347347  0.82056525    -0.20400
C2459       C  0.08473424  0.14693352  0.82097310     0.20200
C2460       C  0.10942333  0.12112908  0.82181788    -0.03400
C2461       C  0.14179004  0.13216314  0.82167792    -0.06400
C2462       C  0.14932107  0.16892203  0.82058339     0.20500
C2463       C  0.16654441  0.10634803  0.82184429     0.18700
C2464       C  0.15869107  0.06984103  0.82276841    -0.17900
C2465       C  0.12657541  0.05887325  0.82282613    -0.20100
C2466       C  0.10182092  0.08427802  0.82198918     0.20100
C2467       C  0.06975428  0.07347504  0.82047365    -0.33100
C2468       C  0.04529414  0.09909746  0.81875825     0.00800
C2469       C  0.05281218  0.13572707  0.81967458    -0.24500
C2470       C  0.18134102  0.17951252  0.81897444    -0.29000
C2471       C  0.20599364  0.15385276  0.81829825     0.06500
C2472       C  0.19855796  0.11740621  0.82029005    -0.27700
H2473       H  0.13004092  0.22271052  0.81954989     0.11200
H2474       H  0.07382554  0.20360206  0.81993418     0.12400
H2475       H  0.17740482  0.04967827  0.82297362     0.11400
H2476       H  0.12112328  0.03050704  0.82306492     0.10700
H2477       H  0.06402726  0.04517353  0.81991121     0.16100
H2478       H  0.03406397  0.15562190  0.81833954     0.12000
H2479       H  0.18690006  0.20767250  0.81754349     0.14800
H2480       H  0.21743791  0.09746381  0.81972696     0.14600
C2481       C  0.43322530  0.00244133  0.76725428    -0.18300
C2482       C  0.41378671  0.02482831  0.77584133    -0.20400
C2483       C  0.40912150  0.06082371  0.77188861     0.20200
C2484       C  0.42470453  0.07456120  0.75928949    -0.03400
C2485       C  0.44403703  0.05183945  0.75050942    -0.06400
C2486       C  0.44816746  0.01556245  0.75447281     0.20500
C2487       C  0.45876088  0.06529344  0.73763829     0.18700
C2488       C  0.45477834  0.10151310  0.73389970    -0.17900
C2489       C  0.43574655  0.12403236  0.74261111    -0.20100
C2490       C  0.42027402  0.11071880  0.75522604     0.20100
C2491       C  0.39947164  0.13256251  0.76348167    -0.33100
C2492       C  0.38250358  0.11859908  0.77563190     0.00800
C2493       C  0.38822091  0.08290210  0.77997540    -0.24500
C2494       C  0.46691790  0.99297788  0.74553597    -0.29000
C2495       C  0.48117754  0.00599891  0.73251491     0.06500
C2496       C  0.47701168  0.04227340  0.72869741    -0.27700
H2497       H  0.43619731  0.97472669  0.77049431     0.11200
H2498       H  0.40204650  0.01381842  0.78550030     0.12400
H2499       H  0.46611342  0.11238237  0.72410914     0.11400
H2500       H  0.43267852  0.15170841  0.73933966     0.10700
H2501       H  0.39516580  0.15985460  0.75993424     0.16100
H2502       H  0.37526731  0.07172974  0.78927184     0.12000
H2503       H  0.47018185  0.96518899  0.74864800     0.14800
H2504       H  0.48838733  0.05277267  0.71884483     0.14600
C2505       C  0.64031943  0.60688757  0.18865464    -0.18300
C2506       C  0.64965823  0.64271798  0.18817623    -0.20400
C2507       C  0.64200830  0.66586897  0.19982737     0.20200
C2508       C  0.62504219  0.65301170  0.21215830    -0.03400
C2509       C  0.61552914  0.61676779  0.21262588    -0.06400
C2510       C  0.62314514  0.59373463  0.20076613     0.20500
C2511       C  0.59815545  0.60367957  0.22483056     0.18700
C2512       C  0.59049784  0.62704514  0.23646115    -0.17900
C2513       C  0.60031814  0.66299959  0.23606974    -0.20100
C2514       C  0.61771228  0.67629181  0.22398679     0.20100
C2515       C  0.62832149  0.71217711  0.22353546    -0.33100
C2516       C  0.64541340  0.72488185  0.21121692     0.00800
C2517       C  0.65158525  0.70156652  0.19936967    -0.24500
C2518       C  0.61278933  0.55814731  0.20101793    -0.29000
C2519       C  0.59500144  0.54507267  0.21296004     0.06500
C2520       C  0.58816266  0.56770327  0.22497773    -0.27700
H2521       H  0.64633635  0.58949860  0.17948779     0.11200
H2522       H  0.66287410  0.65233911  0.17868530     0.12400
H2523       H  0.57695714  0.61750601  0.24586327     0.11400
H2524       H  0.59430021  0.68040639  0.24522174     0.10700
H2525       H  0.62363610  0.72995517  0.23273435     0.16100
H2526       H  0.66512559  0.71078528  0.18989349     0.12000
H2527       H  0.61781501  0.54076658  0.19171172     0.14800
H2528       H  0.57378884  0.55780205  0.23406712     0.14600
C2529       C  0.54335286  0.91437354  0.26746224    -0.18300
C2530       C  0.56193349  0.89196137  0.25861702    -0.20400
C2531       C  0.57349169  0.90411562  0.24499367     0.20200
C2532       C  0.56581470  0.93890507  0.24006778    -0.03400
C2533       C  0.54669467  0.96141471  0.24894653    -0.06400
C2534       C  0.53579405  0.94912164  0.26277618     0.20500
C2535       C  0.53893253  0.99629374  0.24412585     0.18700
C2536       C  0.55028660  0.00823608  0.23039220    -0.17900
C2537       C  0.56981748  0.98610728  0.22170433    -0.20100
C2538       C  0.57799699  0.95152090  0.22650838     0.20100
C2539       C  0.59917879  0.92985071  0.21836899    -0.33100
C2540       C  0.60786678  0.89564032  0.22358289     0.00800
C2541       C  0.59382846  0.88252882  0.23658729    -0.24500
C2542       C  0.51756373  0.97173090  0.27172851    -0.29000
C2543       C  0.50949268  0.00644017  0.26706014     0.06500
C2544       C  0.52012523  0.01857018  0.25317461    -0.27700
H2545       H  0.53502957  0.90455044  0.27805279     0.11200
H2546       H  0.56777112  0.86537709  0.26254920     0.12400
H2547       H  0.54448702  0.03484653  0.22648402     0.11400
H2548       H  0.57884405  0.99622949  0.21129619     0.10700
H2549       H  0.60996022  0.94018096  0.20835232     0.16100
H2550       H  0.60051798  0.85639550  0.24077651     0.12000
H2551       H  0.50919979  0.96194070  0.28231861     0.14800
H2552       H  0.51387346  0.04523763  0.24944923     0.14600
C2553       C  0.83386313  0.74122116  0.27405300    -0.18300
C2554       C  0.81366887  0.76356239  0.26584180    -0.20400
C2555       C  0.79530240  0.74961277  0.25421178     0.20200
C2556       C  0.79705297  0.71263695  0.25095979    -0.03400
C2557       C  0.81722447  0.69000379  0.25935053    -0.06400
C2558       C  0.83592221  0.70447210  0.27085228     0.20500
C2559       C  0.81923705  0.65310871  0.25600186     0.18700
C2560       C  0.80057168  0.63908865  0.24447876    -0.17900
C2561       C  0.78064914  0.66149537  0.23615536    -0.20100
C2562       C  0.77899649  0.69833410  0.23919930     0.20100
C2563       C  0.75974801  0.72111210  0.23064540    -0.33100
C2564       C  0.75781900  0.75797929  0.23380556     0.00800
C2565       C  0.77540916  0.77198130  0.24572236    -0.24500
C2566       C  0.85716792  0.68224659  0.27862204    -0.29000
C2567       C  0.86042053  0.64568777  0.27497697     0.06500
C2568       C  0.84069355  0.63116301  0.26386822    -0.27700
H2569       H  0.84813150  0.75278406  0.28283600     0.11200
H2570       H  0.81266833  0.79184276  0.26849511     0.12400
H2571       H  0.80173365  0.61085447  0.24176105     0.11400
H2572       H  0.76675478  0.65003514  0.22722241     0.10700
H2573       H  0.74580460  0.71000139  0.22164164     0.16100
H2574       H  0.77390883  0.80031719  0.24825814     0.12000
H2575       H  0.87228460  0.69391013  0.28708573     0.14800
H2576       H  0.84311560  0.60319405  0.26085431     0.14600
C2577       C  0.89831630  0.83127837  0.17615260    -0.18300
C2578       C  0.86613244  0.82065939  0.17664440    -0.20400
C2579       C  0.84172859  0.84620031  0.17840729     0.20200
C2580       C  0.84971666  0.88291878  0.17910321    -0.03400
C2581       C  0.88220516  0.89360535  0.17868978    -0.06400
C2582       C  0.90663917  0.86757709  0.17746828     0.20500
C2583       C  0.89026435  0.93014367  0.18018487     0.18700
C2584       C  0.86581764  0.95580530  0.18147815    -0.17900
C2585       C  0.83362276  0.94523128  0.18181173    -0.20100
C2586       C  0.82536653  0.90884104  0.18088729     0.20100
C2587       C  0.79336433  0.89780453  0.18239809    -0.33100
C2588       C  0.78546486  0.86115549  0.18251597     0.00800
C2589       C  0.80966176  0.83555183  0.18014623    -0.24500
C2590       C  0.93891940  0.87810798  0.17833664    -0.29000
C2591       C  0.94706526  0.91423581  0.18069123     0.06500
C2592       C  0.92260454  0.94022415  0.18109786    -0.27700
H2593       H  0.91677087  0.81095751  0.17516028     0.11200
H2594       H  0.86038008  0.79239650  0.17601305     0.12400
H2595       H  0.87162789  0.98396408  0.18260226     0.11400
H2596       H  0.81521054  0.96546666  0.18318130     0.10700
H2597       H  0.77486557  0.91767654  0.18435202     0.16100
H2598       H  0.80368817  0.80727775  0.18018073     0.12000
H2599       H  0.95758819  0.85788742  0.17804985     0.14800
H2600       H  0.92863865  0.96816851  0.18282689     0.14600
C2601       C  0.65632285  0.62248522  0.06252940    -0.18300
C2602       C  0.64820434  0.65861034  0.06144441    -0.20400
C2603       C  0.63307103  0.67156503  0.04873460     0.20200
C2604       C  0.62716934  0.64833750  0.03674722    -0.03400
C2605       C  0.63531874  0.61188352  0.03785685    -0.06400
C2606       C  0.64947724  0.59892347  0.05091102     0.20500
C2607       C  0.62884660  0.58833915  0.02603379     0.18700
C2608       C  0.61461798  0.60163769  0.01313469    -0.17900
C2609       C  0.60618823  0.63782157  0.01209112    -0.20100
C2610       C  0.61201631  0.66124093  0.02389825     0.20100
C2611       C  0.60133251  0.69678685  0.02346439    -0.33100
C2612       C  0.60493577  0.71897226  0.03586659     0.00800
C2613       C  0.62202946  0.70680860  0.04817329    -0.24500
C2614       C  0.65690096  0.56266658  0.05209547    -0.29000
C2615       C  0.65126188  0.53913614  0.04027669     0.06500
C2616       C  0.63703213  0.55203348  0.02728824    -0.27700
H2617       H  0.66758468  0.61286462  0.07254530     0.11200
H2618       H  0.65302624  0.67621373  0.07067553     0.12400
H2619       H  0.60965259  0.58398667  0.00393821     0.11400
H2620       H  0.59457257  0.64735207  0.00215092     0.10700
H2621       H  0.58791505  0.70622570  0.01398957     0.16100
H2622       H  0.62493267  0.72413770  0.05767833     0.12000
H2623       H  0.66839758  0.55310678  0.06207119     0.14800
H2624       H  0.63299915  0.53405908  0.01808905     0.14600
C2625       C  0.54589983  0.01086418  0.97944410    -0.18300
C2626       C  0.55183296  0.97727871  0.98567088    -0.20400
C2627       C  0.53159023  0.96379562  0.99672263     0.20200
C2628       C  0.50548546  0.98453141  0.00174935    -0.03400
C2629       C  0.49965922  0.01848367  0.99554187    -0.06400
C2630       C  0.51979766  0.03151583  0.98422464     0.20500
C2631       C  0.47345949  0.03915287  0.00051575     0.18700
C2632       C  0.45341676  0.02581467  0.01167592    -0.17900
C2633       C  0.45934559  0.99222002  0.01789946    -0.20100
C2634       C  0.48524964  0.97140951  0.01301359     0.20100
C2635       C  0.49166182  0.93801048  0.01935581    -0.33100
C2636       C  0.51777350  0.91745138  0.01447248     0.00800
C2637       C  0.53738093  0.93020416  0.00302206    -0.24500
C2638       C  0.51294822  0.06453520  0.97764570    -0.29000
C2639       C  0.48647645  0.08480436  0.98233236     0.06500
C2640       C  0.46722968  0.07239399  0.99397556    -0.27700
H2641       H  0.56165194  0.02060295  0.97079273     0.11200
H2642       H  0.57210445  0.96180832  0.98181369     0.12400
H2643       H  0.43315658  0.04129314  0.01554101     0.11400
H2644       H  0.44360122  0.98248509  0.02655465     0.10700
H2645       H  0.47677055  0.92830993  0.02833453     0.16100
H2646       H  0.55802923  0.91477625  0.99951392     0.12000
H2647       H  0.52770348  0.07407567  0.96859188     0.14800
H2648       H  0.44644869  0.08769925  0.99740894     0.14600
C2649       C  0.60611271  0.76993935  0.13726263    -0.18300
C2650       C  0.59269324  0.76797423  0.12312223    -0.20400
C2651       C  0.59568192  0.79684086  0.11327531     0.20200
C2652       C  0.61184052  0.82819744  0.11784601    -0.03400
C2653       C  0.62475814  0.83046532  0.13219287    -0.06400
C2654       C  0.62240822  0.80093437  0.14186238     0.20500
C2655       C  0.64042283  0.86214232  0.13677788     0.18700
C2656       C  0.64320823  0.89109540  0.12701818    -0.17900
C2657       C  0.63094452  0.88858018  0.11273827    -0.20100
C2658       C  0.61528633  0.85730922  0.10805821     0.20100
C2659       C  0.60281105  0.85485512  0.09379025    -0.33100
C2660       C  0.58619712  0.82405090  0.08915839     0.00800
C2661       C  0.58273854  0.79502875  0.09897112    -0.24500
C2662       C  0.63693301  0.80282593  0.15581611    -0.29000
C2663       C  0.65273354  0.83426333  0.16029418     0.06500
C2664       C  0.65370800  0.86406784  0.15092262    -0.27700
H2665       H  0.60386799  0.74711233  0.14458325     0.11200
H2666       H  0.58027157  0.74377355  0.11983713     0.12400
H2667       H  0.65522803  0.91550382  0.13037008     0.11400
H2668       H  0.63365662  0.91121369  0.10534141     0.10700
H2669       H  0.60542957  0.87747496  0.08637486     0.16100
H2670       H  0.56997508  0.77117624  0.09550090     0.12000
H2671       H  0.63605237  0.77995858  0.16318815     0.14800
H2672       H  0.66605402  0.88818822  0.15443556     0.14600
C2673       C  0.71726433  0.90313901  0.98816525    -0.18300
C2674       C  0.69740296  0.88070159  0.99650754    -0.20400
C2675       C  0.67741507  0.89502273  0.00748199     0.20200
C2676       C  0.67821722  0.93218432  0.01037295    -0.03400
C2677       C  0.69836758  0.95483541  0.00197162    -0.06400
C2678       C  0.71756907  0.94024294  0.99065637     0.20500
C2679       C  0.69884617  0.99209322  0.00470276     0.18700
C2680       C  0.67938068  0.00629633  0.01590158    -0.17900
C2681       C  0.65917832  0.98389302  0.02411388    -0.20100
C2682       C  0.65820652  0.94688194  0.02135448     0.20100
C2683       C  0.63667693  0.92457146  0.02895422    -0.33100
C2684       C  0.63448364  0.88776123  0.02561268     0.00800
C2685       C  0.65571215  0.87303020  0.01516331    -0.24500
C2686       C  0.73651488  0.96301112  0.98196103    -0.29000
C2687       C  0.73708360  0.00014457  0.98455908     0.06500
C2688       C  0.71852307  0.01449400  0.99609527    -0.27700
H2689       H  0.73211914  0.89145844  0.97959846     0.11200
H2690       H  0.69720390  0.85226238  0.99418573     0.12400
H2691       H  0.67945104  0.03476425  0.01816629     0.11400
H2692       H  0.64394592  0.99564657  0.03251686     0.10700
H2693       H  0.62041244  0.93633256  0.03693801     0.16100
H2694       H  0.65425826  0.84480441  0.01246497     0.12000
H2695       H  0.75128600  0.95171371  0.97327069     0.14800
H2696       H  0.71904173  0.04306017  0.99820119     0.14600
C2697       C  0.42713016  0.63220670  0.00945549    -0.18300
C2698       C  0.44693544  0.65502621  0.01763321    -0.20400
C2699       C  0.45711589  0.68788489  0.01174025     0.20200
C2700       C  0.44767516  0.69762759  0.99735921    -0.03400
C2701       C  0.42743523  0.67470045  0.98913007    -0.06400
C2702       C  0.41699115  0.64198098  0.99526388     0.20500
C2703       C  0.41689461  0.68501907  0.97496559     0.18700
C2704       C  0.42777842  0.71748409  0.96894532    -0.17900
C2705       C  0.44823486  0.73995548  0.97700670    -0.20100
C2706       C  0.45795515  0.73053423  0.99130899     0.20100
C2707       C  0.47752935  0.75354306  0.99969611    -0.33100
C2708       C  0.48673658  0.74420326  0.01412883     0.00800
C2709       C  0.47640362  0.71121985  0.02001318    -0.24500
C2710       C  0.39548057  0.62029219  0.98739725    -0.29000
C2711       C  0.38325652  0.63138662  0.97366915     0.06500
C2712       C  0.39468514  0.66341448  0.96736478    -0.27700
H2713       H  0.41926964  0.60722830  0.01433054     0.11200
H2714       H  0.45408056  0.64707431  0.02865067     0.12400
H2715       H  0.42009122  0.72577788  0.95805114     0.11400
H2716       H  0.45602429  0.76498474  0.97214754     0.10700
H2717       H  0.48551575  0.77870340  0.99499763     0.16100
H2718       H  0.48355578  0.70348347  0.03105696     0.12000
H2719       H  0.38659889  0.59591076  0.99244575     0.14800
H2720       H  0.38535761  0.67218965  0.95680782     0.14600
C2721       C  0.34169185  0.81950994  0.06765881    -0.18300
C2722       C  0.37362982  0.80788520  0.06733690    -0.20400
C2723       C  0.39888260  0.83278157  0.06679191     0.20200
C2724       C  0.39186922  0.86978823  0.06699737    -0.03400
C2725       C  0.35963321  0.88151730  0.06720366    -0.06400
C2726       C  0.33441956  0.85623788  0.06737650     0.20500
C2727       C  0.35266296  0.91849633  0.06667294     0.18700
C2728       C  0.37789960  0.94342236  0.06642754    -0.17900
C2729       C  0.40979839  0.93182435  0.06635157    -0.20100
C2730       C  0.41700973  0.89510573  0.06644045     0.20100
C2731       C  0.44885131  0.88332119  0.06538191    -0.33100
C2732       C  0.45599626  0.84653780  0.06447497     0.00800
C2733       C  0.43090192  0.82137936  0.06547842    -0.24500
C2734       C  0.30245074  0.86807842  0.06663955    -0.29000
C2735       C  0.29536392  0.90485623  0.06543074     0.06500
C2736       C  0.32064237  0.92989345  0.06579980    -0.27700
H2737       H  0.32263994  0.79972581  0.06779100     0.11200
H2738       H  0.37855726  0.77938672  0.06723439     0.12400
H2739       H  0.37295882  0.97189990  0.06602636     0.11400
H2740       H  0.42883849  0.95160035  0.06589515     0.10700
H2741       H  0.46795975  0.90294579  0.06446460     0.16100
H2742       H  0.43619565  0.79299376  0.06478352     0.12000
H2743       H  0.28319980  0.84853901  0.06619845     0.14800
H2744       H  0.31547074  0.95826296  0.06485275     0.14600
C2745       C  0.87532535  0.40131638  0.26315785    -0.18300
C2746       C  0.86581737  0.36532299  0.26338832    -0.20400
C2747       C  0.86275877  0.34695750  0.27681811     0.20200
C2748       C  0.86962689  0.36496696  0.29013040    -0.03400
C2749       C  0.87882548  0.40132080  0.28990537    -0.06400
C2750       C  0.88168615  0.41963556  0.27635119     0.20500
C2751       C  0.88510176  0.41931797  0.30325900     0.18700
C2752       C  0.88253681  0.40092076  0.31668516    -0.17900
C2753       C  0.87348024  0.36492198  0.31690422    -0.20100
C2754       C  0.86678808  0.34684812  0.30371068     0.20100
C2755       C  0.85624641  0.31132593  0.30392949    -0.33100
C2756       C  0.84779604  0.29368689  0.29079566     0.00800
C2757       C  0.85194220  0.31131941  0.27722411    -0.24500
C2758       C  0.89137754  0.45570448  0.27624662    -0.29000
C2759       C  0.89817348  0.47357291  0.28953511     0.06500
C2760       C  0.89439519  0.45526648  0.30298785    -0.27700
H2761       H  0.87753530  0.41489574  0.25264644     0.11200
H2762       H  0.86065203  0.35191811  0.25307029     0.12400
H2763       H  0.88747859  0.41439626  0.32701251     0.11400
H2764       H  0.87136752  0.35131491  0.32741537     0.10700
H2765       H  0.85322526  0.29793512  0.31444959     0.16100
H2766       H  0.84530075  0.29798103  0.26706108     0.12000
H2767       H  0.89466864  0.46943923  0.26582478     0.14800
H2768       H  0.89975899  0.46864052  0.31330507     0.14600
C2769       C  0.71007325  0.97617794  0.26942845    -0.18300
C2770       C  0.71605478  0.00944716  0.27596920    -0.20400
C2771       C  0.73394898  0.03559930  0.26846190     0.20200
C2772       C  0.74581373  0.02835933  0.25423160    -0.03400
C2773       C  0.73997643  0.99474195  0.24769170    -0.06400
C2774       C  0.72193831  0.96853484  0.25530737     0.20500
C2775       C  0.75209104  0.98744031  0.23351168     0.18700
C2776       C  0.76980924  0.01365658  0.22596884    -0.17900
C2777       C  0.77563153  0.04696008  0.23246653    -0.20100
C2778       C  0.76389372  0.05451739  0.24660512     0.20100
C2779       C  0.77091249  0.08723343  0.25345858    -0.33100
C2780       C  0.76049015  0.09386511  0.26790606     0.00800
C2781       C  0.74111611  0.06839799  0.27514882    -0.24500
C2782       C  0.71539426  0.93556866  0.24849895    -0.29000
C2783       C  0.72654090  0.92865365  0.23416307     0.06500
C2784       C  0.74560491  0.95438706  0.22692913    -0.27700
H2785       H  0.69612592  0.95642559  0.27541544     0.11200
H2786       H  0.70686328  0.01464962  0.28692527     0.12400
H2787       H  0.77911766  0.00840903  0.21503508     0.11400
H2788       H  0.78957421  0.06671397  0.22647465     0.10700
H2789       H  0.78594060  0.10666995  0.24784737     0.16100
H2790       H  0.73280309  0.07338251  0.28628256     0.12000
H2791       H  0.70052244  0.91597698  0.25410124     0.14800
H2792       H  0.75437846  0.94932070  0.21587569     0.14600
C2793       C  0.66235001  0.28082419  0.22624071    -0.18300
C2794       C  0.68125552  0.25860146  0.23509829    -0.20400
C2795       C  0.69770535  0.27268881  0.24729137     0.20200
C2796       C  0.69563743  0.30967420  0.25040171    -0.03400
C2797       C  0.67672265  0.33216926  0.24137767    -0.06400
C2798       C  0.65964517  0.31751910  0.22938142     0.20500
C2799       C  0.67409091  0.36903254  0.24464086     0.18700
C2800       C  0.69124477  0.38327332  0.25661040    -0.17900
C2801       C  0.71001381  0.36098152  0.26553865    -0.20100
C2802       C  0.71198538  0.32407781  0.26267489     0.20100
C2803       C  0.72990857  0.30130451  0.27185715    -0.33100
C2804       C  0.73210770  0.26439419  0.26881190     0.00800
C2805       C  0.71607086  0.25037568  0.25644129    -0.24500
C2806       C  0.63897920  0.33941021  0.22117291    -0.29000
C2807       C  0.63454292  0.37569384  0.22493698     0.06500
C2808       C  0.65317900  0.39063395  0.23634373    -0.27700
H2809       H  0.64937909  0.26914465  0.21705481     0.11200
H2810       H  0.68267423  0.23032215  0.23252937     0.12400
H2811       H  0.68963328  0.41149873  0.25924237     0.11400
H2812       H  0.72266987  0.37257869  0.27483662     0.10700
H2813       H  0.74272861  0.31244365  0.28120531     0.16100
H2814       H  0.71783779  0.22204402  0.25395527     0.12000
H2815       H  0.62483964  0.32753722  0.21239986     0.14800
H2816       H  0.64998253  0.41848581  0.23936475     0.14600
C2817       C  0.59051795  0.18672124  0.31828789    -0.18300
C2818       C  0.62248028  0.19789035  0.31818851    -0.20400
C2819       C  0.64734788  0.17271375  0.31916933     0.20200
C2820       C  0.64002092  0.13593879  0.32049551    -0.03400
C2821       C  0.60767912  0.12462193  0.32049117    -0.06400
C2822       C  0.58290517  0.15021737  0.31931462     0.20500
C2823       C  0.60016699  0.08775920  0.32115269     0.18700
C2824       C  0.62513408  0.06263578  0.32231684    -0.17900
C2825       C  0.65724610  0.07390235  0.32243146    -0.20100
C2826       C  0.66497113  0.11045365  0.32131957     0.20100
C2827       C  0.69708771  0.12193237  0.32043769    -0.33100
C2828       C  0.70443366  0.15851388  0.31854728     0.00800
C2829       C  0.67938228  0.18370871  0.31828345    -0.24500
C2830       C  0.55096805  0.13889937  0.31862843    -0.29000
C2831       C  0.54323327  0.10227404  0.31864678     0.06500
C2832       C  0.56792238  0.07673924  0.32011787    -0.27700
H2833       H  0.57171620  0.20665465  0.31728926     0.11200
H2834       H  0.62776807  0.22618752  0.31711654     0.12400
H2835       H  0.61984905  0.03426243  0.32288982     0.11400
H2836       H  0.67607043  0.05393464  0.32308491     0.10700
H2837       H  0.71622333  0.10225913  0.32050135     0.16100
H2838       H  0.68473462  0.21191223  0.31682115     0.12000
H2839       H  0.53216742  0.15872741  0.31725838     0.14800
H2840       H  0.56211211  0.04843487  0.32007127     0.14600
C2841       C  0.93815920  0.01288842  0.26870064    -0.18300
C2842       C  0.91894987  0.03491908  0.27755709    -0.20400
C2843       C  0.91072251  0.06959487  0.27291872     0.20200
C2844       C  0.92253267  0.08240597  0.25931223    -0.03400
C2845       C  0.94157727  0.05998448  0.25027009    -0.06400
C2846       C  0.94930782  0.02500962  0.25496548     0.20500
C2847       C  0.95247539  0.07241110  0.23645120     0.18700
C2848       C  0.94483416  0.10735345  0.23194517    -0.17900
C2849       C  0.92615632  0.12960979  0.24092187    -0.20100
C2850       C  0.91464285  0.11726740  0.25455600     0.20100
C2851       C  0.89434626  0.13868790  0.26321380    -0.33100
C2852       C  0.88096935  0.12544540  0.27641726     0.00800
C2853       C  0.88995654  0.09113013  0.28135543    -0.24500
C2854       C  0.96791749  0.00272028  0.24583717    -0.29000
C2855       C  0.97866462  0.01474920  0.23195564     0.06500
C2856       C  0.97074892  0.04970448  0.22737817    -0.27700
H2857       H  0.94395282  0.98617803  0.27251118     0.11200
H2858       H  0.91020044  0.02462828  0.28798601     0.12400
H2859       H  0.95311639  0.11741960  0.22139916     0.11400
H2860       H  0.92029002  0.15628613  0.23709377     0.10700
H2861       H  0.88745094  0.16490447  0.25918619     0.16100
H2862       H  0.87976695  0.08059082  0.29146535     0.12000
H2863       H  0.97399479  0.97597960  0.24954305     0.14800
H2864       H  0.97920965  0.05949233  0.21681397     0.14600
C2865       C  0.87620589  0.36465215  0.48706524    -0.18300
C2866       C  0.86651847  0.40052963  0.48699346    -0.20400
C2867       C  0.86312469  0.41911648  0.47364449     0.20200
C2868       C  0.86914165  0.40121509  0.46021726    -0.03400
C2869       C  0.87861715  0.36496295  0.46028703    -0.06400
C2870       C  0.88252925  0.34670425  0.47379436     0.20500
C2871       C  0.88471033  0.34720755  0.44685881     0.18700
C2872       C  0.88083910  0.36553320  0.43347697    -0.17900
C2873       C  0.87143535  0.40144950  0.43341148    -0.20100
C2874       C  0.86569576  0.41950946  0.44671506     0.20100
C2875       C  0.85585149  0.45531481  0.44672792    -0.33100
C2876       C  0.84880183  0.47307730  0.46003865     0.00800
C2877       C  0.85310654  0.45500680  0.47347590    -0.24500
C2878       C  0.89382593  0.31130098  0.47380536    -0.29000
C2879       C  0.90147637  0.29411227  0.46048449     0.06500
C2880       C  0.89573198  0.31184255  0.44704193    -0.27700
H2881       H  0.87903895  0.35101525  0.49753329     0.11200
H2882       H  0.86179979  0.41379059  0.49738721     0.12400
H2883       H  0.88543568  0.35222228  0.42308516     0.11400
H2884       H  0.86868189  0.41512202  0.42294859     0.10700
H2885       H  0.85247837  0.46894385  0.43628679     0.16100
H2886       H  0.84733057  0.46831944  0.48375505     0.12000
H2887       H  0.89819513  0.29783699  0.48420205     0.14800
H2888       H  0.90134595  0.29876619  0.43669199     0.14600
C2889       C  0.95651193  0.99971813  0.52082518    -0.18300
C2890       C  0.95174537  0.03436964  0.51539824    -0.20400
C2891       C  0.97152408  0.04790704  0.50418402     0.20200
C2892       C  0.99614422  0.02618961  0.49829210    -0.03400
C2893       C  0.00076529  0.99116199  0.50368102    -0.06400
C2894       C  0.98101712  0.97803486  0.51509478     0.20500
C2895       C  0.02544401  0.96951175  0.49780967     0.18700
C2896       C  0.04504457  0.98291580  0.48650495    -0.17900
C2897       C  0.04031944  0.01756718  0.48110131    -0.20100
C2898       C  0.01601761  0.03935210  0.48692968     0.20100
C2899       C  0.01055306  0.07362404  0.48126866    -0.33100
C2900       C  0.98530424  0.09485285  0.48667364     0.00800
C2901       C  0.96642437  0.08230768  0.49841656    -0.24500
C2902       C  0.98693697  0.94400401  0.52095373    -0.29000
C2903       C  0.01249324  0.92303437  0.51565495     0.06500
C2904       C  0.03094135  0.93538515  0.50373498    -0.27700
H2905       H  0.94113833  0.98995652  0.52960650     0.11200
H2906       H  0.93263624  0.05055599  0.51995849     0.12400
H2907       H  0.06411430  0.96671029  0.48192678     0.11400
H2908       H  0.05569172  0.02732773  0.47231146     0.10700
H2909       H  0.02505376  0.08318651  0.47212873     0.16100
H2910       H  0.94654680  0.09830346  0.50240180     0.12000
H2911       H  0.97262156  0.93453384  0.53016200     0.14800
H2912       H  0.05089092  0.91952634  0.49973769     0.14600
C2913       C  0.88540467  0.11888521  0.38314928    -0.18300
C2914       C  0.87017389  0.11896377  0.36941331    -0.20400
C2915       C  0.86147449  0.15140602  0.36269463     0.20200
C2916       C  0.86812364  0.18410699  0.36989606    -0.03400
C2917       C  0.88409784  0.18404476  0.38363318    -0.06400
C2918       C  0.89256714  0.15123233  0.39031934     0.20500
C2919       C  0.89163924  0.21676147  0.39064880     0.18700
C2920       C  0.88249344  0.24918289  0.38402135    -0.17900
C2921       C  0.86608083  0.24920144  0.37055073    -0.20100
C2922       C  0.85889900  0.21685905  0.36336158     0.20100
C2923       C  0.84283168  0.21662883  0.34974012    -0.33100
C2924       C  0.83677090  0.18415847  0.34237480     0.00800
C2925       C  0.84626341  0.15168301  0.34890083    -0.24500
C2926       C  0.90811124  0.15134899  0.40402879    -0.29000
C2927       C  0.91619214  0.18380478  0.41095318     0.06500
C2928       C  0.90811774  0.21644937  0.40416765    -0.27700
H2929       H  0.89178463  0.09345955  0.38812868     0.11200
H2930       H  0.86512371  0.09364971  0.36405993     0.12400
H2931       H  0.88794316  0.27450878  0.38927888     0.11400
H2932       H  0.85920558  0.27460674  0.36569079     0.10700
H2933       H  0.83561104  0.24173366  0.34471142     0.16100
H2934       H  0.84129042  0.12657770  0.34333947     0.12000
H2935       H  0.91449300  0.12614783  0.40921236     0.14800
H2936       H  0.91408049  0.24149743  0.40956399     0.14600
C2937       C  0.06237560  0.38326114  0.49630273    -0.18300
C2938       C  0.04240230  0.36136146  0.48774439    -0.20400
C2939       C  0.04067682  0.32433864  0.49037687     0.20200
C2940       C  0.05899705  0.30928031  0.50189023    -0.03400
C2941       C  0.07926127  0.33138067  0.51050508    -0.06400
C2942       C  0.08108155  0.36852377  0.50765325     0.20500
C2943       C  0.09806868  0.31618374  0.52180127     0.18700
C2944       C  0.09625147  0.27918374  0.52448872    -0.17900
C2945       C  0.07595031  0.25736972  0.51607379    -0.20100
C2946       C  0.05724533  0.27212396  0.50473622     0.20100
C2947       C  0.03685722  0.25038096  0.49620411    -0.33100
C2948       C  0.01872937  0.26514994  0.48462395     0.00800
C2949       C  0.02095414  0.30213051  0.48173436    -0.24500
C2950       C  0.10223283  0.39009611  0.51589271    -0.29000
C2951       C  0.12181322  0.37496223  0.52690638     0.06500
C2952       C  0.11901070  0.33802829  0.52994487    -0.27700
H2953       H  0.06343861  0.41166837  0.49394689     0.11200
H2954       H  0.02836771  0.37342140  0.47898937     0.12400
H2955       H  0.11066686  0.26703906  0.53308591     0.11400
H2956       H  0.07500880  0.22892917  0.51838240     0.10700
H2957       H  0.03528238  0.22192871  0.49847959     0.16100
H2958       H  0.00673795  0.31377589  0.47294011     0.12000
H2959       H  0.10437573  0.41833853  0.51331516     0.14800
H2960       H  0.13413084  0.32585701  0.53827863     0.14600
C2961       C  0.13034173  0.19741243  0.43355755    -0.18300
C2962       C  0.16230084  0.18606433  0.43394433    -0.20400
C2963       C  0.16969519  0.14953610  0.43525201     0.20200
C2964       C  0.14466692  0.12404670  0.43570458    -0.03400
C2965       C  0.11240461  0.13547375  0.43517937    -0.06400
C2966       C  0.10524780  0.17238194  0.43438442     0.20500
C2967       C  0.08735118  0.11007461  0.43603441     0.18700
C2968       C  0.09476842  0.07348586  0.43708171    -0.17900
C2969       C  0.12673798  0.06217977  0.43771686    -0.20100
C2970       C  0.15182373  0.08728375  0.43725644     0.20100
C2971       C  0.18383924  0.07641395  0.43890728    -0.33100
C2972       C  0.20880526  0.10183401  0.43900038     0.00800
C2973       C  0.20158852  0.13821659  0.43673136    -0.24500
C2974       C  0.07319205  0.18370931  0.43502047    -0.29000
C2975       C  0.04814886  0.15861871  0.43637302     0.06500
C2976       C  0.05538908  0.12179870  0.43645074    -0.27700
H2977       H  0.12524615  0.22581852  0.43289874     0.11200
H2978       H  0.18125183  0.20597047  0.43357501     0.12400
H2979       H  0.07581001  0.05363831  0.43775780     0.11400
H2980       H  0.13182547  0.03386409  0.43886409     0.10700
H2981       H  0.18921845  0.04830561  0.44060116     0.16100
H2982       H  0.22066048  0.15801588  0.43688057     0.12000
H2983       H  0.06779627  0.21211604  0.43495479     0.14800
H2984       H  0.03625314  0.10229577  0.43766137     0.14600
C2985       C  0.81330767  0.01116944  0.48179060    -0.18300
C2986       C  0.83472243  0.03287365  0.47393165    -0.20400
C2987       C  0.83950963  0.06878909  0.47797831     0.20200
C2988       C  0.82216579  0.08314391  0.48995697    -0.03400
C2989       C  0.80080156  0.06109238  0.49801691    -0.06400
C2990       C  0.79647075  0.02488633  0.49394097     0.20500
C2991       C  0.78426453  0.07509048  0.51030419     0.18700
C2992       C  0.78851492  0.11123002  0.51415652    -0.17900
C2993       C  0.80954233  0.13311482  0.50613579    -0.20100
C2994       C  0.82677300  0.11922448  0.49411695     0.20100
C2995       C  0.84930143  0.14042275  0.48652118    -0.33100
C2996       C  0.86770492  0.12587664  0.47492739     0.00800
C2997       C  0.86206977  0.09019999  0.47055851    -0.24500
C2998       C  0.77579444  0.00287339  0.50220156    -0.29000
C2999       C  0.75993463  0.01632450  0.51471818     0.06500
C3000       C  0.76413387  0.05258815  0.51861322    -0.27700
H3001       H  0.81027136  0.98348711  0.47849530     0.11200
H3002       H  0.84783848  0.02140310  0.46475016     0.12400
H3003       H  0.77583945  0.12250902  0.52350770     0.11400
H3004       H  0.81271525  0.16073451  0.50947592     0.10700
H3005       H  0.85355579  0.16770690  0.49010451     0.16100
H3006       H  0.87614177  0.07857615  0.46171194     0.12000
H3007       H  0.77256512  0.97507618  0.49907249     0.14800
H3008       H  0.75155097  0.06338499  0.52809229     0.14600
loop_ 
_geom_bond_atom_site_label_1 
_geom_bond_atom_site_label_2 
_geom_bond_distance 
_geom_bond_site_symmetry_2 
_ccdc_geom_bond_type 
O1           C16   1.262       .  A
O1           Al9   1.900       .  S
C2           O12   1.261       .  A
C2            O3   1.266   1_455  A
C2         C2975   1.479       .  S
O3           Al5   1.928       .  S
O4            C6   1.256       .  A
O4           Al5   1.868       .  S
Al5          O13   1.888       .  S
Al5          O15   1.932       .  S
Al5          O14   1.774       .  S
C6           O19   1.267       .  A
C6         C2900   1.470       .  S
O7           C17   1.261       .  A
O7           Al9   1.904       .  S
O8           C21   1.259       .  A
O8          Al18   1.869       .  S
Al9          O22   1.943       .  S
Al9          O19   1.940       .  S
Al9          O14   1.781       .  S
O10          C17   1.265       .  A
O10         Al18   1.934       .  S
O11          C20   1.266       .  A
O11         Al18   1.932       .  S
O12         Al18   1.888   1_455  S
O13          C20   1.260       .  A
O14         Al18   1.777       .  S
O15          C16   1.267       .  A
C16        C2996   1.489       .  S
C17        C2948   1.484   1_655  S
C20        C2927   1.477       .  S
C21          O22   1.270       .  A
C21        C2879   1.477       .  S
O23          C38   1.260       .  A
O23         Al31   1.889       .  S
C24          O34   1.262       .  A
C24          O25   1.268       .  A
C24        C2828   1.481       .  S
O25         Al27   1.935       .  S
O26          C28   1.255       .  A
O26         Al27   1.865       .  S
Al27         O35   1.891       .  S
Al27         O37   1.940       .  S
Al27         O36   1.778       .  S
C28          O41   1.267       .  A
C28        C2780   1.474       .  S
O29          C39   1.259       .  A
O29         Al31   1.893       .  S
O30          C43   1.261       .  A
O30         Al40   1.873       .  S
Al31         O44   1.941       .  S
Al31         O41   1.935       .  S
Al31         O36   1.778       .  S
O32          C39   1.265       .  A
O32         Al40   1.939       .  S
O33          C42   1.266       .  A
O33         Al40   1.933       .  S
O34         Al40   1.882       .  S
O35          C42   1.261       .  A
O36         Al40   1.775       .  S
O37          C38   1.268       .  A
C38        C2852   1.488       .  S
C39        C2804   1.482       .  S
C42        C2924   1.479       .  S
C43          O44   1.270       .  A
C43        C2756   1.476       .  S
O45          C60   1.265       .  A
O45         Al53   1.920       .  S
C46          O56   1.266       .  A
C46          O47   1.262       .  A
C46        C2732   1.481       .  S
O47         Al49   1.896       .  S
O48          C50   1.264       .  A
O48         Al49   1.922       .  S
Al49         O57   1.931       .  S
Al49         O59   1.882       .  S
Al49         O58   1.777       .  S
C50          O63   1.263       .  A
C50        C2708   1.486       .  S
O51          C61   1.264       .  A
O51         Al53   1.920       .  S
O52          C65   1.265       .  A
O52         Al62   1.924       .  S
Al53         O66   1.903       .  S
Al53         O63   1.907       .  S
Al53         O58   1.783       .  S
O54          C61   1.257       .  A
O54         Al62   1.878       .  S
O55          C64   1.260       .  A
O55         Al62   1.887       .  S
O56         Al62   1.925       .  S
O57          C64   1.264       .  A
O58         Al62   1.773       .  S
O59          C60   1.262       .  A
C60        C2612   1.463       .  S
C61        C2636   1.466       .  S
C64        C2660   1.482       .  S
C65          O66   1.263       .  A
C65        C2684   1.487       .  S
O67          C82   1.268       .  A
O67         Al75   1.952       .  S
C68          O78   1.265       .  A
C68          O69   1.260       .  A
C68        C2588   1.477       .  S
O69         Al71   1.887       .  S
O70          C72   1.266       .  A
O70         Al71   1.930       .  S
Al71         O79   1.922       .  S
Al71         O81   1.864       .  S
Al71         O80   1.770       .  S
C72          O85   1.262       .  A
C72        C2564   1.482       .  S
O73          C83   1.268       .  A
O73         Al75   1.941       .  S
O74          C87   1.264       .  A
O74         Al84   1.925       .  S
Al75         O88   1.889       .  S
Al75         O85   1.903       .  S
Al75         O80   1.782       .  S
O76          C83   1.257       .  A
O76         Al84   1.869       .  S
O77          C86   1.259       .  A
O77         Al84   1.886       .  S
O78         Al84   1.924       .  S
O79          C86   1.264       .  A
O80         Al84   1.779       .  S
O81          C82   1.257       .  A
C82        C2516   1.478       .  S
C83        C2783   1.476       .  S
C86        C2663   1.467       .  S
C87          O88   1.262       .  A
C87        C2540   1.478       .  S
O89         C104   1.264       .  A
O89         Al97   1.904       .  S
C90         O100   1.258       .  A
C90          O91   1.265       .  A
C90        C2471   1.477       .  S
O91         Al93   1.931       .  S
O92          C94   1.256       .  A
O92         Al93   1.870       .  S
Al93        O101   1.881       .  S
Al93        O103   1.932       .  S
Al93        O102   1.775       .  S
C94         O107   1.268       .  A
C94        C2399   1.469       .  S
O95         C105   1.262       .  A
O95         Al97   1.903       .  S
O96         C109   1.257       .  A
O96        Al106   1.864       .  S
Al97        O110   1.954       .  S
Al97        O107   1.939       .  S
Al97        O102   1.783       .  S
O98         C105   1.265       .  A
O98        Al106   1.920       .  S
O99         C108   1.264       .  A
O99        Al106   1.921       .  S
O100       Al106   1.876       .  S
O101        C108   1.260       .  A
O102       Al106   1.771       .  S
O103        C104   1.267       .  A
C104       C2492   1.489       .  S
C105       C2447   1.481       .  S
C108       C2420   1.467       .  S
C109        O110   1.270       .  A
C109       C2372   1.478       .  S
O111        C126   1.262       .  A
O111       Al119   1.896       .  S
C112        O122   1.260       .  A
C112        O113   1.263       .  A
C112       C2324   1.474       .  S
O113       Al115   1.922       .  S
O114        C116   1.259       .  A
O114       Al115   1.881       .  S
Al115       O123   1.878       .  S
Al115       O125   1.928       .  S
Al115       O124   1.776       .  S
C116        O129   1.267       .  A
C116       C2639   1.468       .  S
O117        C127   1.259       .  A
O117       Al119   1.888       .  S
O118        C131   1.259       .  A
O118       Al128   1.875       .  S
Al119       O132   1.939       .  S
Al119       O129   1.930       .  S
Al119       O124   1.781       .  S
O120        C127   1.267       .  A
O120       Al128   1.927       .  S
O121        C130   1.266       .  A
O121       Al128   1.925       .  S
O122       Al128   1.889       .  S
O123        C130   1.260       .  A
O124       Al128   1.776       .  S
O125        C126   1.265       .  A
C126       C2348   1.484       .  S
C127       C2303   1.479       .  S
C130       C2423   1.470       .  S
C131        O132   1.267       .  A
C131       C2276   1.479       .  S
O133        C148   1.265       .  A
O133       Al141   1.930       .  S
C134        O144   1.263       .  A
C134        O135   1.258       .  A
C134       C2252   1.472       .  S
O135       Al137   1.875       .  S
O136        C138   1.268       .  A
O136       Al137   1.935       .  S
Al137       O145   1.928       .  S
Al137       O147   1.868       .  S
Al137       O146   1.772       .  S
C138        O151   1.262       .  A
C138       C2231   1.486       .  S
O139        C149   1.264       .  A
O139       Al141   1.930       .  S
O140        C153   1.266       .  A
O140       Al150   1.923       .  S
Al141       O154   1.893       .  S
Al141       O151   1.897       .  S
Al141       O146   1.786       .  S
O142        C149   1.258       .  A
O142       Al150   1.877       .  S
O143        C152   1.259       .  A
O143       Al150   1.884       .  S
O144       Al150   1.917       .  S
O145        C152   1.266       .  A
O146       Al150   1.777       .  S
O147        C148   1.257       .  A
C148       C2156   1.473       .  S
C149       C2396   1.469       .  S
C152       C2183   1.474       .  S
C153        O154   1.262       .  A
C153       C2207   1.479       .  S
O155        C170   1.269       .  A
O155       Al163   1.949       .  S
C156        O166   1.265   1_655  A
C156        O157   1.257       .  A
C156       C2135   1.476       .  S
O157       Al159   1.875   1_655  S
O158        C160   1.266       .  A
O158       Al159   1.927       .  S
Al159       O167   1.930       .  S
Al159       O169   1.873       .  S
Al159       O168   1.771       .  S
C160        O173   1.261       .  A
C160       C2108   1.484   1_455  S
O161        C171   1.267       .  A
O161       Al163   1.938       .  S
O162        C175   1.267       .  A
O162       Al172   1.933       .  S
Al163       O176   1.893       .  S
Al163       O173   1.898       .  S
Al163       O168   1.779       .  S
O164        C171   1.257       .  A
O164       Al172   1.875       .  S
O165        C174   1.259       .  A
O165       Al172   1.884       .  S
O166       Al172   1.925       .  S
O167        C174   1.267       .  A
O168       Al172   1.779       .  S
O169        C170   1.259       .  A
C170       C2063   1.483       .  S
C171       C2903   1.473       .  S
C174       C2180   1.477       .  S
C175        O176   1.264       .  A
C175       C2087   1.484       .  S
O177        C192   1.269   1_565  A
O177       Al185   1.950       .  S
C178        O188   1.266       .  A
C178        O179   1.260       .  A
C178       C2735   1.484       .  S
O179       Al181   1.889       .  S
O180        C182   1.265       .  A
O180       Al181   1.931       .  S
Al181       O189   1.936       .  S
Al181       O191   1.867       .  S
Al181       O190   1.774       .  S
C182        O195   1.260       .  A
C182       C2351   1.484   1_565  S
O183        C193   1.267       .  A
O183       Al185   1.935       .  S
O184        C197   1.267       .  A
O184       Al194   1.935       .  S
Al185       O198   1.897       .  S
Al185       O195   1.898       .  S
Al185       O190   1.783       .  S
O186        C193   1.256       .  A
O186       Al194   1.867       .  S
O187        C196   1.260       .  A
O187       Al194   1.890       .  S
O188       Al194   1.933       .  S
O189        C196   1.267       .  A
O190       Al194   1.778       .  S
O191        C192   1.260   1_565  A
C192       C1964   1.479       .  S
C193       C1988   1.472       .  S
C196       C2015   1.480       .  S
C197        O198   1.263       .  A
C197       C2039   1.488       .  S
O199        C214   1.267   1_565  A
O199       Al207   1.932       .  S
C200        O210   1.268   1_655  A
C200        O201   1.260       .  A
C200       C2591   1.480       .  S
O201       Al203   1.878   1_655  S
O202        C204   1.267   1_445  A
O202       Al203   1.941   1_545  S
Al203       O211   1.938       .  S
Al203       O213   1.870   1_565  S
Al203       O212   1.776       .  S
C204        O217   1.261   1_655  A
C204       C2855   1.489   1_565  S
O205        C215   1.266       .  A
O205       Al207   1.931       .  S
O206        C219   1.269       .  A
O206       Al216   1.950       .  S
Al207       O220   1.890       .  S
Al207       O217   1.899       .  S
Al207       O212   1.780       .  S
O208        C215   1.257       .  A
O208       Al216   1.874       .  S
O209        C218   1.262       .  A
O209       Al216   1.891       .  S
O210       Al216   1.936       .  S
O211        C218   1.267       .  A
O212       Al216   1.777       .  S
O213        C214   1.259       .  A
C214       C1892   1.473       .  S
C215       C1916   1.471       .  S
C218       C2012   1.483       .  S
C219        O220   1.261       .  A
C219       C1940   1.491       .  S
O221        C236   1.264       .  A
O221       Al229   1.909       .  S
C222        O232   1.260       .  A
C222        O223   1.264   1_455  A
C222       C1868   1.474       .  S
O223       Al225   1.920       .  S
O224        C226   1.257       .  A
O224       Al225   1.869       .  S
Al225       O233   1.894       .  S
Al225       O235   1.918       .  S
Al225       O234   1.777       .  S
C226        O239   1.268       .  A
C226       C1919   1.471       .  S
O227        C237   1.261       .  A
O227       Al229   1.905       .  S
O228        C241   1.259       .  A
O228       Al238   1.867       .  S
Al229       O242   1.943       .  S
Al229       O239   1.938       .  S
Al229       O234   1.787       .  S
O230        C237   1.266       .  A
O230       Al238   1.930       .  S
O231        C240   1.267       .  A
O231       Al238   1.935       .  S
O232       Al238   1.889   1_455  S
O233        C240   1.261       .  A
O234       Al238   1.776       .  S
O235        C236   1.264       .  A
C236       C2567   1.489       .  S
C237       C1847   1.489   1_655  S
C240       C1820   1.481       .  S
C241        O242   1.270       .  A
C241       C2759   1.478       .  S
O243        C258   1.260       .  A
O243       Al251   1.883       .  S
C244        O254   1.259       .  A
C244        O245   1.266       .  A
C244       C1799   1.471       .  S
O245       Al247   1.923       .  S
O246        C248   1.257       .  A
O246       Al247   1.874       .  S
Al247       O255   1.890       .  S
Al247       O257   1.940       .  S
Al247       O256   1.775       .  S
C248        O261   1.270       .  A
C248       C1751   1.480       .  S
O249        C259   1.260       .  A
O249       Al251   1.890       .  S
O250        C263   1.258       .  A
O250       Al260   1.868       .  S
Al251       O264   1.951       .  S
Al251       O261   1.954       .  S
Al251       O256   1.775       .  S
O252        C259   1.267       .  A
O252       Al260   1.943       .  S
O253        C262   1.267       .  A
O253       Al260   1.936       .  S
O254       Al260   1.875       .  S
O255        C262   1.261       .  A
O256       Al260   1.774       .  S
O257        C258   1.267       .  A
C258       C2111   1.480       .  S
C259       C1775   1.484       .  S
C262       C1823   1.479       .  S
C263        O264   1.271       .  A
C263       C2876   1.477       .  S
O265        C280   1.269       .  A
O265       Al273   1.943       .  S
C266        O276   1.265       .  A
C266        O267   1.260       .  A
C266       C2255   1.474       .  S
O267       Al269   1.884       .  S
O268        C270   1.266       .  A
O268       Al269   1.936       .  S
Al269       O277   1.930       .  S
Al269       O279   1.866       .  S
Al269       O278   1.774       .  S
C270        O283   1.261       .  A
C270       C2495   1.487   1_565  S
O271        C281   1.268       .  A
O271       Al273   1.935       .  S
O272        C285   1.264       .  A
O272       Al282   1.927       .  S
Al273       O286   1.895       .  S
Al273       O283   1.899       .  S
Al273       O278   1.778       .  S
O274        C281   1.258       .  A
O274       Al282   1.871       .  S
O275        C284   1.260       .  A
O275       Al282   1.882       .  S
O276       Al282   1.922       .  S
O277        C284   1.266       .  A
O278       Al282   1.779       .  S
O279        C280   1.258       .  A
C280       C1652   1.478   1_565  S
C281       C1679   1.471       .  S
C284       C1700   1.471       .  S
C285        O286   1.262       .  A
C285       C1727   1.484       .  S
O287        C302   1.272   1_565  A
O287       Al295   1.954       .  S
C288        O298   1.265       .  A
C288        O289   1.261       .  A
C288       C2132   1.465       .  S
O289       Al291   1.881       .  S
O290        C292   1.264   1_545  A
O290       Al291   1.931   1_545  S
Al291       O299   1.929       .  S
Al291       O301   1.861   1_565  S
Al291       O300   1.776       .  S
C292        O305   1.262       .  A
C292       C2999   1.485   1_565  S
O293        C303   1.271       .  A
O293       Al295   1.957       .  S
O294        C307   1.264       .  A
O294       Al304   1.925       .  S
Al295       O308   1.892       .  S
Al295       O305   1.906       .  S
Al295       O300   1.781       .  S
O296        C303   1.256       .  A
O296       Al304   1.865       .  S
O297        C306   1.260       .  A
O297       Al304   1.886       .  S
O298       Al304   1.919       .  S
O299        C306   1.264       .  A
O300       Al304   1.773       .  S
O301        C302   1.259       .  A
C302       C1604   1.477       .  S
C303       C1748   1.479       .  S
C306       C1703   1.474       .  S
C307        O308   1.261       .  A
C307       C1628   1.482       .  S
O309        C324   1.261       .  A
O309       Al317   1.884       .  S
C310        O320   1.261       .  A
C310        O311   1.269       .  A
C310       C1580   1.478       .  S
O311       Al313   1.933       .  S
O312        C314   1.256       .  A
O312       Al313   1.874       .  S
Al313       O321   1.888       .  S
Al313       O323   1.940       .  S
Al313       O322   1.777       .  S
C314        O327   1.264       .  A
C314       C1676   1.473       .  S
O315        C325   1.259       .  A
O315       Al317   1.895       .  S
O316        C329   1.262       .  A
O316       Al326   1.879       .  S
Al317       O330   1.939       .  S
Al317       O327   1.923       .  S
Al317       O322   1.776       .  S
O318        C325   1.262       .  A
O318       Al326   1.916       .  S
O319        C328   1.260       .  A
O319       Al326   1.912       .  S
O320       Al326   1.879       .  S
O321        C328   1.259       .  A
O322       Al326   1.777       .  S
O323        C324   1.268       .  A
C324       C2228   1.485       .  S
C325       C1556   1.472       .  S
C328       C1535   1.470       .  S
C329        O330   1.269       .  A
C329       C2375   1.471       .  S
O331        C346   1.261       .  A
O331       Al339   1.892       .  S
C332        O342   1.260       .  A
C332        O333   1.267       .  A
C332       C1511   1.483       .  S
O333       Al335   1.939       .  S
O334        C336   1.256       .  A
O334       Al335   1.861       .  S
Al335       O343   1.876       .  S
Al335       O345   1.938       .  S
Al335       O344   1.775       .  S
C336        O349   1.268       .  A
C336       C1991   1.473       .  S
O337        C347   1.258       .  A
O337       Al339   1.893       .  S
O338        C351   1.258       .  A
O338       Al348   1.866       .  S
Al339       O352   1.955       .  S
Al339       O349   1.943       .  S
Al339       O344   1.782       .  S
O340        C347   1.265       .  A
O340       Al348   1.927       .  S
O341        C350   1.265       .  A
O341       Al348   1.928       .  S
O342       Al348   1.882       .  S
O343        C350   1.259       .  A
O344       Al348   1.773       .  S
O345        C346   1.267       .  A
C346       C2711   1.484       .  S
C347       C1487   1.476       .  S
C350       C1532   1.469       .  S
C351        O352   1.271       .  A
C351       C2279   1.482       .  S
O353        C368   1.266       .  A
O353       Al361   1.928       .  S
C354        O364   1.265       .  A
C354        O355   1.258       .  A
C354       C1460   1.477       .  S
O355       Al357   1.876       .  S
O356        C358   1.267       .  A
O356       Al357   1.930       .  S
Al357       O365   1.926       .  S
Al357       O367   1.867       .  S
Al357       O366   1.769       .  S
C358        O371   1.262       .  A
C358       C1436   1.487       .  S
O359        C369   1.266       .  A
O359       Al361   1.932       .  S
O360        C373   1.266       .  A
O360       Al370   1.932       .  S
Al361       O374   1.890       .  S
Al361       O371   1.904       .  S
Al361       O366   1.781       .  S
O362        C369   1.256       .  A
O362       Al370   1.864       .  S
O363        C372   1.259       .  A
O363       Al370   1.881       .  S
O364       Al370   1.928       .  S
O365        C372   1.265       .  A
O366       Al370   1.778       .  S
O367        C368   1.257       .  A
C368       C2615   1.469       .  S
C369       C1391   1.465       .  S
C372       C1412   1.469       .  S
C373        O374   1.261       .  A
C373       C2300   1.480       .  S
O375        C390   1.266       .  A
O375       Al383   1.933       .  S
C376        O386   1.264       .  A
C376        O377   1.260       .  A
C376       C1364   1.474       .  S
O377       Al379   1.887       .  S
O378        C380   1.265       .  A
O378       Al379   1.924       .  S
Al379       O387   1.927       .  S
Al379       O389   1.883       .  S
Al379       O388   1.776       .  S
C380        O393   1.263       .  A
C380       C1340   1.481       .  S
O381        C391   1.265       .  A
O381       Al383   1.931       .  S
O382        C395   1.266       .  A
O382       Al392   1.919       .  S
Al383       O396   1.905       .  S
Al383       O393   1.906       .  S
Al383       O388   1.783       .  S
O384        C391   1.256       .  A
O384       Al392   1.875       .  S
O385        C394   1.259       .  A
O385       Al392   1.883       .  S
O386       Al392   1.920       .  S
O387        C394   1.265       .  A
O388       Al392   1.775       .  S
O389        C390   1.261       .  A
C390       C2519   1.470       .  S
C391       C1316   1.470       .  S
C394       C1415   1.475       .  S
C395        O396   1.264       .  A
C395       C2807   1.485       .  S
O397        C412   1.263       .  A
O397       Al405   1.902       .  S
C398        O408   1.260       .  A
C398        O399   1.266       .  A
C398       C2972   1.478       .  S
O399       Al401   1.929       .  S
O400        C402   1.257       .  A
O400       Al401   1.873       .  S
Al401       O409   1.890       .  S
Al401       O411   1.927       .  S
Al401       O410   1.770       .  S
C402        O415   1.267       .  A
C402       C1247   1.467       .  S
O403        C413   1.261       .  A
O403       Al405   1.907       .  S
O404        C417   1.259       .  A
O404       Al414   1.858       .  S
Al405       O418   1.946       .  S
Al405       O415   1.933       .  S
Al405       O410   1.786       .  S
O406        C413   1.265       .  A
O406       Al414   1.923       .  S
O407        C416   1.266       .  A
O407       Al414   1.940       .  S
O408       Al414   1.885       .  S
O409        C416   1.262       .  A
O410       Al414   1.771       .  S
O411        C412   1.266       .  A
C412       C1295   1.487       .  S
C413       C2084   1.482       .  S
C416       C1268   1.486       .  S
C417        O418   1.269       .  A
C417       C1223   1.472   1_545  S
O419        C434   1.260       .  A
O419       Al427   1.887       .  S
C420        O430   1.259       .  A
C420        O421   1.266       .  A
C420       C2831   1.478       .  S
O421       Al423   1.923       .  S
O422        C424   1.259       .  A
O422       Al423   1.885       .  S
Al423       O431   1.889       .  S
Al423       O433   1.932       .  S
Al423       O432   1.774       .  S
C424        O437   1.267       .  A
C424       C1319   1.473       .  S
O425        C435   1.260       .  A
O425       Al427   1.894       .  S
O426        C439   1.258       .  A
O426       Al436   1.864       .  S
Al427       O440   1.937       .  S
Al427       O437   1.928       .  S
Al427       O432   1.781       .  S
O428        C435   1.267       .  A
O428       Al436   1.924       .  S
O429        C438   1.265       .  A
O429       Al436   1.932       .  S
O430       Al436   1.891       .  S
O431        C438   1.260       .  A
O432       Al436   1.772       .  S
O433        C434   1.267       .  A
C434       C1199   1.480       .  S
C435       C2543   1.479       .  S
C438       C1271   1.475       .  S
C439        O440   1.266       .  A
C439       C1175   1.474   1_545  S
O441        C456   1.267       .  A
O441       Al449   1.935       .  S
C442        O452   1.265   1_655  A
C442        O443   1.260       .  A
C442       C1151   1.475       .  S
O443       Al445   1.883   1_655  S
O444        C446   1.267       .  A
O444       Al445   1.935       .  S
Al445       O453   1.939       .  S
Al445       O455   1.865       .  S
Al445       O454   1.773       .  S
C446        O459   1.262       .  A
C446       C1127   1.490   1_455  S
O447        C457   1.266       .  A
O447       Al449   1.930       .  S
O448        C461   1.266       .  A
O448       Al458   1.928       .  S
Al449       O462   1.888       .  S
Al449       O459   1.902       .  S
Al449       O454   1.783       .  S
O450        C457   1.258       .  A
O450       Al458   1.881       .  S
O451        C460   1.260       .  A
O451       Al458   1.897       .  S
O452       Al458   1.921       .  S
O453        C460   1.266       .  A
O454       Al458   1.780       .  S
O455        C456   1.259       .  A
C456       C2159   1.469       .  S
C457       C1076   1.475       .  S
C460       C1100   1.480       .  S
C461        O462   1.261       .  A
C461       C2444   1.481       .  S
O463        C478   1.268       .  A
O463       Al471   1.946       .  S
C464        O474   1.263       .  A
C464        O465   1.259       .  A
C464       C1055   1.474       .  S
O465       Al467   1.887       .  S
O466        C468   1.268       .  A
O466       Al467   1.940       .  S
Al467       O475   1.945       .  S
Al467       O477   1.874       .  S
Al467       O476   1.776       .  S
C468        O481   1.259       .  A
C468       C1028   1.482       .  S
O469        C479   1.266       .  A
O469       Al471   1.931       .  S
O470        C483   1.266       .  A
O470       Al480   1.923       .  S
Al471       O484   1.908       .  S
Al471       O481   1.891       .  S
Al471       O476   1.785       .  S
O472        C479   1.259       .  A
O472       Al480   1.884       .  S
O473        C482   1.263       .  A
O473       Al480   1.897       .  S
O474       Al480   1.921       .  S
O475        C482   1.270       .  A
O476       Al480   1.775       .  S
O477        C478   1.260       .  A
C478       C2060   1.481       .  S
C479       C1244   1.467       .  S
C482       C1103   1.492       .  S
C483        O484   1.265       .  A
C483       C2951   1.489       .  S
O485        C500   1.261       .  A
O485       Al493   1.886       .  S
C486        O496   1.260       .  A
C486        O487   1.266   1_455  A
C486       C2468   1.475       .  S
O487       Al489   1.926       .  S
O488        C490   1.259       .  A
O488       Al489   1.880       .  S
Al489       O497   1.885       .  S
Al489       O499   1.925       .  S
Al489       O498   1.772       .  S
C490        O503   1.267       .  A
C490       C1079   1.475       .  S
O491        C501   1.260       .  A
O491       Al493   1.886       .  S
O492        C505   1.260   1_545  A
O492       Al502   1.878       .  S
Al493       O506   1.938       .  S
Al493       O503   1.937       .  S
Al493       O498   1.776       .  S
O494        C501   1.267       .  A
O494       Al502   1.934       .  S
O495        C504   1.267       .  A
O495       Al502   1.932       .  S
O496       Al502   1.883   1_455  S
O497        C504   1.259       .  A
O498       Al502   1.773       .  S
O499        C500   1.265       .  A
C500       C1004   1.474       .  S
C501       C2204   1.477   1_645  S
C504        C983   1.478       .  S
C505        O506   1.268   1_565  A
C505        C956   1.473       .  S
O507        C522   1.262       .  A
O507       Al515   1.887       .  S
C508        O518   1.259       .  A
C508        O509   1.268       .  A
C508       C2327   1.480       .  S
O509       Al511   1.942       .  S
O510        C512   1.257       .  A
O510       Al511   1.866       .  S
Al511       O519   1.887       .  S
Al511       O521   1.937       .  S
Al511       O520   1.775       .  S
C512        O525   1.268       .  A
C512       C1388   1.468       .  S
O513        C523   1.260       .  A
O513       Al515   1.899       .  S
O514        C527   1.258       .  A
O514       Al524   1.867       .  S
Al515       O528   1.957       .  S
Al515       O525   1.943       .  S
Al515       O520   1.779       .  S
O516        C523   1.266       .  A
O516       Al524   1.935       .  S
O517        C526   1.264       .  A
O517       Al524   1.929       .  S
O518       Al524   1.872       .  S
O519        C526   1.259       .  A
O520       Al524   1.767       .  S
O521        C522   1.267       .  A
C522        C932   1.480       .  S
C523       C2687   1.480       .  S
C526        C980   1.461       .  S
C527        O528   1.271       .  A
C527        C911   1.481   1_545  S
O529        C544   1.263       .  A
O529       Al537   1.897       .  S
C530        O540   1.260       .  A
C530        O531   1.267   1_455  A
C530       C1508   1.483       .  S
O531       Al533   1.932       .  S
O532        C534   1.256       .  A
O532       Al533   1.872       .  S
Al533       O541   1.884       .  S
Al533       O543   1.940       .  S
Al533       O542   1.780       .  S
C534        O547   1.267       .  A
C534        C860   1.476       .  S
O535        C545   1.262       .  A
O535       Al537   1.902       .  S
O536        C549   1.259       .  A
O536       Al546   1.878       .  S
Al537       O550   1.943       .  S
Al537       O547   1.934       .  S
Al537       O542   1.781       .  S
O538        C545   1.265       .  A
O538       Al546   1.929       .  S
O539        C548   1.263       .  A
O539       Al546   1.921       .  S
O540       Al546   1.888   1_455  S
O541        C548   1.259       .  A
O542       Al546   1.777       .  S
O543        C544   1.267       .  A
C544       C1439   1.489       .  S
C545       C2036   1.487   1_655  S
C548        C887   1.466       .  S
C549        O550   1.268       .  A
C549        C908   1.477       .  S
O551        C566   1.260       .  A
O551       Al559   1.889       .  S
C552        O562   1.260       .  A
C552        O553   1.266       .  A
C552       C1583   1.469       .  S
O553       Al555   1.925       .  S
O554        C556   1.257       .  A
O554       Al555   1.872       .  S
Al555       O563   1.881       .  S
Al555       O565   1.937       .  S
Al555       O564   1.773       .  S
C556        O569   1.269       .  A
C556        C839   1.471       .  S
O557        C567   1.258       .  A
O557       Al559   1.893       .  S
O558        C571   1.258       .  A
O558       Al568   1.860       .  S
Al559       O572   1.951       .  S
Al559       O569   1.939       .  S
Al559       O564   1.775       .  S
O560        C567   1.266       .  A
O560       Al568   1.936       .  S
O561        C570   1.267       .  A
O561       Al568   1.934       .  S
O562       Al568   1.880       .  S
O563        C570   1.261       .  A
O564       Al568   1.775       .  S
O565        C566   1.266       .  A
C566       C1124   1.483       .  S
C567       C1724   1.479       .  S
C570        C884   1.476       .  S
C571        O572   1.271       .  A
C571        C959   1.478       .  S
O573        C588   1.268       .  A
O573       Al581   1.947       .  S
C574        O584   1.266   1_655  A
C574        O575   1.258       .  A
C574       C1463   1.476       .  S
O575       Al577   1.878   1_655  S
O576        C578   1.265       .  A
O576       Al577   1.921       .  S
Al577       O585   1.925       .  S
Al577       O587   1.874       .  S
Al577       O586   1.774       .  S
C578        O591   1.261       .  A
C578        C935   1.480   1_455  S
O579        C589   1.266       .  A
O579       Al581   1.933       .  S
O580        C593   1.267       .  A
O580       Al590   1.928       .  S
Al581       O594   1.894       .  S
Al581       O591   1.894       .  S
Al581       O586   1.781       .  S
O582        C589   1.258       .  A
O582       Al590   1.879       .  S
O583        C592   1.259       .  A
O583       Al590   1.893       .  S
O584       Al590   1.925       .  S
O585        C592   1.263       .  A
O586       Al590   1.778       .  S
O587        C588   1.260       .  A
C588       C1967   1.481       .  S
C589        C863   1.478       .  S
C592        C815   1.467       .  S
C593        O594   1.264       .  A
C593       C1484   1.483       .  S
O595        C610   1.271       .  A
O595       Al603   1.949       .  S
C596        O606   1.271       .  A
C596        O597   1.259       .  A
C596       C1367   1.480       .  S
O597       Al599   1.872       .  S
O598        C600   1.265       .  A
O598       Al599   1.934       .  S
Al599       O607   1.937       .  S
Al599       O609   1.861       .  S
Al599       O608   1.772       .  S
C600        O613   1.259       .  A
C600       C1196   1.476       .  S
O601        C611   1.268       .  A
O601       Al603   1.940       .  S
O602        C615   1.269       .  A
O602       Al612   1.945       .  S
Al603       O616   1.889       .  S
Al603       O613   1.897       .  S
Al603       O608   1.776       .  S
O604        C611   1.255       .  A
O604       Al612   1.863       .  S
O605        C614   1.259       .  A
O605       Al612   1.884       .  S
O606       Al612   1.944       .  S
O607        C614   1.266       .  A
O608       Al612   1.768       .  S
O609        C610   1.259       .  A
C610       C1895   1.471       .  S
C611        C788   1.471       .  S
C614        C812   1.482       .  S
C615        O616   1.261       .  A
C615       C1844   1.488       .  S
O617        C632   1.264       .  A
O617       Al625   1.900       .  S
C618        O628   1.258       .  A
C618        O619   1.267       .  A
C618       C1871   1.480       .  S
O619       Al621   1.935       .  S
O620        C622   1.257       .  A
O620       Al621   1.870       .  S
Al621       O629   1.888       .  S
Al621       O631   1.931       .  S
Al621       O630   1.773       .  S
C622        O635   1.266       .  A
C622        C791   1.470       .  S
O623        C633   1.262       .  A
O623       Al625   1.899       .  S
O624        C637   1.258       .  A
O624       Al634   1.861       .  S
Al625       O638   1.943       .  S
Al625       O635   1.933       .  S
Al625       O630   1.782       .  S
O626        C633   1.268       .  A
O626       Al634   1.943       .  S
O627        C636   1.268       .  A
O627       Al634   1.939       .  S
O628       Al634   1.873       .  S
O629        C636   1.260       .  A
O630       Al634   1.770       .  S
O631        C632   1.267       .  A
C632       C1343   1.486       .  S
C633       C1943   1.489       .  S
C636        C767   1.485       .  S
C637        O638   1.267       .  A
C637       C1172   1.469       .  S
O639        C654   1.261       .  A
O639       Al647   1.888       .  S
C640        O650   1.259       .  A
C640        O641   1.265       .  A
C640       C1796   1.471       .  S
O641       Al643   1.921       .  S
O642        C644   1.258       .  A
O642       Al643   1.884       .  S
Al643       O651   1.899       .  S
Al643       O653   1.931       .  S
Al643       O652   1.782       .  S
C644        O657   1.263       .  A
C644        C740   1.472       .  S
O645        C655   1.261       .  A
O645       Al647   1.901       .  S
O646        C659   1.260       .  A
O646       Al656   1.871       .  S
Al647       O660   1.923       .  S
Al647       O657   1.911       .  S
Al647       O652   1.782       .  S
O648        C655   1.265       .  A
O648       Al656   1.926       .  S
O649        C658   1.263       .  A
O649       Al656   1.922       .  S
O650       Al656   1.873       .  S
O651        C658   1.261       .  A
O652       Al656   1.774       .  S
O653        C654   1.267       .  A
C654       C1031   1.484       .  S
C655       C1631   1.485       .  S
C658        C764   1.476       .  S
C659        O660   1.265       .  A
C659       C1220   1.470       .  S
O661        C676   1.269       .  A
O661       Al669   1.950       .  S
C662        O672   1.262       .  A
C662        O663   1.259       .  A
C662       C1148   1.473       .  S
O663       Al665   1.886       .  S
O664        C666   1.266       .  A
O664       Al665   1.919       .  S
Al665       O673   1.924       .  S
Al665       O675   1.869       .  S
Al665       O674   1.770       .  S
C666        O679   1.262       .  A
C666       C1007   1.478       .  S
O667        C677   1.268       .  A
O667       Al669   1.949       .  S
O668        C681   1.264       .  A
O668       Al678   1.906       .  S
Al669       O682   1.900       .  S
Al669       O679   1.895       .  S
Al669       O674   1.785       .  S
O670        C677   1.257       .  A
O670       Al678   1.871       .  S
O671        C680   1.257       .  A
O671       Al678   1.876       .  S
O672       Al678   1.912       .  S
O673        C680   1.265       .  A
O674       Al678   1.771       .  S
O675        C676   1.258       .  A
C676       C1655   1.478       .  S
C677        C836   1.474       .  S
C680        C716   1.463       .  S
C681        O682   1.264       .  A
C681       C1559   1.476       .  S
O683        C698   1.266       .  A
O683       Al691   1.935       .  S
C684        O694   1.270       .  A
C684        O685   1.259       .  A
C684       C1052   1.479       .  S
O685       Al687   1.866       .  S
O686        C688   1.266       .  A
O686       Al687   1.931       .  S
Al687       O695   1.918       .  S
Al687       O697   1.872       .  S
Al687       O696   1.771       .  S
C688        O701   1.262       .  A
C688       C1292   1.480       .  S
O689        C699   1.264       .  A
O689       Al691   1.921       .  S
O690        C703   1.269       .  A
O690       Al700   1.940       .  S
Al691       O704   1.887       .  S
Al691       O701   1.903       .  S
Al691       O696   1.778       .  S
O692        C699   1.258       .  A
O692       Al700   1.879       .  S
O693        C702   1.259       .  A
O693       Al700   1.889       .  S
O694       Al700   1.944       .  S
O695        C702   1.263       .  A
O696       Al700   1.777       .  S
O697        C698   1.259       .  A
C698       C1607   1.468       .  S
C699        C743   1.473       .  S
C702        C719   1.477       .  S
C703        O704   1.262       .  A
C703       C1772   1.484       .  S
C705        C706   1.397       .  A
C705        C710   1.403       .  A
C705        H721   1.085       .  S
C706        C707   1.403       .  A
C706        H722   1.083       .  S
C707        C717   1.399       .  A
C707        C708   1.411       .  A
C708        C714   1.413       .  A
C708        C709   1.410       .  A
C709        C711   1.411       .  A
C709        C710   1.412       .  A
C710        C718   1.401       .  A
C711        C720   1.402       .  A
C711        C712   1.404       .  A
C712        C713   1.399       .  A
C712        H723   1.083       .  S
C713        C714   1.402       .  A
C713        H724   1.085       .  S
C714        C715   1.402       .  A
C715        C716   1.402       .  A
C715        H725   1.085       .  S
C716        C717   1.403       .  A
C717        H726   1.084       .  S
C718        C719   1.406       .  A
C718        H727   1.085       .  S
C719        C720   1.407       .  A
C720        H728   1.084       .  S
C729        C730   1.398       .  A
C729        C734   1.403       .  A
C729        H745   1.083       .  S
C730        C731   1.403       .  A
C730        H746   1.084       .  S
C731        C741   1.400       .  A
C731        C732   1.412       .  A
C732        C738   1.411       .  A
C732        C733   1.408       .  A
C733        C735   1.411       .  A
C733        C734   1.411       .  A
C734        C742   1.400       .  A
C735        C744   1.399       .  A
C735        C736   1.403       .  A
C736        C737   1.396       .  A
C736        H747   1.084       .  S
C737        C738   1.402       .  A
C737        H748   1.084       .  S
C738        C739   1.398       .  A
C739        C740   1.405       .  A
C739        H749   1.084       .  S
C740        C741   1.406       .  A
C741        H750   1.084       .  S
C742        C743   1.406       .  A
C742        H751   1.084       .  S
C743        C744   1.406       .  A
C744        H752   1.084       .  S
C753        C754   1.399       .  A
C753        C758   1.404       .  A
C753        H769   1.084       .  S
C754        C755   1.403       .  A
C754        H770   1.083       .  S
C755        C765   1.404       .  A
C755        C756   1.412       .  A
C756        C762   1.412       .  A
C756        C757   1.414       .  A
C757        C759   1.412       .  A
C757        C758   1.411       .  A
C758        C766   1.403       .  A
C759        C768   1.407       .  A
C759        C760   1.404       .  A
C760        C761   1.401       .  A
C760        H771   1.083       .  S
C761        C762   1.404       .  A
C761        H772   1.084       .  S
C762        C763   1.407       .  A
C763        C764   1.406       .  A
C763        H773   1.085       .  S
C764        C765   1.404       .  A
C765        H774   1.084       .  S
C766        C767   1.409       .  A
C766        H775   1.084       .  S
C767        C768   1.408       .  A
C768        H776   1.084       .  S
C777        C778   1.397       .  A
C777        C782   1.403       .  A
C777        H793   1.082       .  S
C778        C779   1.403       .  A
C778        H794   1.085       .  S
C779        C789   1.397       .  A
C779        C780   1.409       .  A
C780        C786   1.413       .  A
C780        C781   1.408       .  A
C781        C783   1.410       .  A
C781        C782   1.413       .  A
C782        C790   1.401       .  A
C783        C792   1.396       .  A
C783        C784   1.403       .  A
C784        C785   1.397       .  A
C784        H795   1.085       .  S
C785        C786   1.402       .  A
C785        H796   1.083       .  S
C786        C787   1.402       .  A
C787        C788   1.403       .  A
C787        H797   1.084       .  S
C788        C789   1.407       .  A
C789        H798   1.086       .  S
C790        C791   1.405       .  A
C790        H799   1.084       .  S
C791        C792   1.406       .  A
C792        H800   1.085       .  S
C801        C802   1.397       .  A
C801        C806   1.402       .  A
C801        H817   1.085       .  S
C802        C803   1.403       .  A
C802        H818   1.083       .  S
C803        C813   1.400       .  A
C803        C804   1.410       .  A
C804        C810   1.412       .  A
C804        C805   1.412       .  A
C805        C807   1.413       .  A
C805        C806   1.413       .  A
C806        C814   1.401       .  A
C807        C816   1.406       .  A
C807        C808   1.404       .  A
C808        C809   1.401       .  A
C808        H819   1.083       .  S
C809        C810   1.404       .  A
C809        H820   1.084       .  S
C810        C811   1.406       .  A
C811        C812   1.408       .  A
C811        H821   1.085       .  S
C812        C813   1.407       .  A
C813        H822   1.084       .  S
C814        C815   1.401       .  A
C814        H823   1.085       .  S
C815        C816   1.404       .  A
C816        H824   1.084       .  S
C825        C826   1.395       .  A
C825        C830   1.402       .  A
C825        H841   1.082       .  S
C826        C827   1.402       .  A
C826        H842   1.086       .  S
C827        C837   1.396       .  A
C827        C828   1.410       .  A
C828        C834   1.413       .  A
C828        C829   1.410       .  A
C829        C831   1.411       .  A
C829        C830   1.413       .  A
C830        C838   1.399       .  A
C831        C840   1.402       .  A
C831        C832   1.404       .  A
C832        C833   1.401       .  A
C832        H843   1.085       .  S
C833        C834   1.405       .  A
C833        H844   1.082       .  S
C834        C835   1.407       .  A
C835        C836   1.408       .  A
C835        H845   1.083       .  S
C836        C837   1.405       .  A
C837        H846   1.086       .  S
C838        C839   1.402       .  A
C838        H847   1.084       .  S
C839        C840   1.409       .  A
C840        H848   1.086       .  S
C849        C850   1.398       .  A
C849        C854   1.403       .  A
C849        H865   1.085       .  S
C850        C851   1.403       .  A
C850        H866   1.083       .  S
C851        C861   1.402   1_554  A
C851        C852   1.412   1_554  A
C852        C858   1.410   1_655  A
C852        C853   1.410   1_656  A
C853        C855   1.412   1_554  A
C853        C854   1.410   1_455  A
C854        C862   1.399       .  A
C855        C864   1.402   1_556  A
C855        C856   1.403       .  A
C856        C857   1.398       .  A
C856        H867   1.083       .  S
C857        C858   1.403       .  A
C857        H868   1.084       .  S
C858        C859   1.399       .  A
C859        C860   1.408   1_455  A
C859        H869   1.085       .  S
C860        C861   1.405       .  A
C861        H870   1.084   1_556  S
C862        C863   1.408   1_655  A
C862        H871   1.085       .  S
C863        C864   1.406       .  A
C864        H872   1.084   1_554  S
C873        C874   1.396       .  A
C873        C878   1.402       .  A
C873        H889   1.085       .  S
C874        C875   1.403       .  A
C874        H890   1.083       .  S
C875        C885   1.398       .  A
C875        C876   1.410       .  A
C876        C882   1.412       .  A
C876        C877   1.410       .  A
C877        C879   1.412       .  A
C877        C878   1.413       .  A
C878        C886   1.399       .  A
C879        C888   1.404       .  A
C879        C880   1.404       .  A
C880        C881   1.401       .  A
C880        H891   1.083       .  S
C881        C882   1.404       .  A
C881        H892   1.084       .  S
C882        C883   1.405       .  A
C883        C884   1.407       .  A
C883        H893   1.085       .  S
C884        C885   1.405       .  A
C885        H894   1.084       .  S
C886        C887   1.401       .  A
C886        H895   1.085       .  S
C887        C888   1.404       .  A
C888        H896   1.084       .  S
C897        C898   1.401       .  A
C897        C902   1.404       .  A
C897        H913   1.084       .  S
C898        C899   1.405       .  A
C898        H914   1.083       .  S
C899        C909   1.406       .  A
C899        C900   1.411       .  A
C900        C906   1.412       .  A
C900        C901   1.411       .  A
C901        C903   1.408       .  A
C901        C902   1.413       .  A
C902        C910   1.408       .  A
C903        C912   1.396       .  A
C903        C904   1.403       .  A
C904        C905   1.396       .  A
C904        H915   1.083       .  S
C905        C906   1.402       .  A
C905        H916   1.084       .  S
C906        C907   1.399       .  A
C907        C908   1.406       .  A
C907        H917   1.085       .  S
C908        C909   1.407       .  A
C909        H918   1.084       .  S
C910        C911   1.407       .  A
C910        H919   1.084       .  S
C911        C912   1.409       .  A
C912        H920   1.084       .  S
C921        C922   1.400       .  A
C921        C926   1.404       .  A
C921        H937   1.082       .  S
C922        C923   1.403       .  A
C922        H938   1.085       .  S
C923        C933   1.406       .  A
C923        C924   1.413       .  A
C924        C930   1.410       .  A
C924        C925   1.412   1_556  A
C925        C927   1.411       .  A
C925        C926   1.411   1_554  A
C926        C934   1.404   1_556  A
C927        C936   1.400       .  A
C927        C928   1.402       .  A
C928        C929   1.397       .  A
C928        H939   1.085       .  S
C929        C930   1.404   1_554  A
C929        H940   1.082       .  S
C930        C931   1.400       .  A
C931        C932   1.408       .  A
C931        H941   1.083       .  S
C932        C933   1.406       .  A
C933        H942   1.085       .  S
C934        C935   1.408       .  A
C934        H943   1.083       .  S
C935        C936   1.406       .  A
C936        H944   1.085       .  S
C945        C946   1.395       .  A
C945        C950   1.402       .  A
C945        H961   1.084       .  S
C946        C947   1.402       .  A
C946        H962   1.083       .  S
C947        C957   1.397       .  A
C947        C948   1.412       .  A
C948        C954   1.411       .  A
C948        C949   1.409       .  A
C949        C951   1.413       .  A
C949        C950   1.409       .  A
C950        C958   1.394       .  A
C951        C960   1.407       .  A
C951        C952   1.404       .  A
C952        C953   1.401       .  A
C952        H963   1.083       .  S
C953        C954   1.404       .  A
C953        H964   1.084       .  S
C954        C955   1.404       .  A
C955        C956   1.407       .  A
C955        H965   1.085       .  S
C956        C957   1.404       .  A
C957        H966   1.084       .  S
C958        C959   1.408       .  A
C958        H967   1.085       .  S
C959        C960   1.406       .  A
C960        H968   1.084       .  S
C969        C970   1.398       .  A
C969        C974   1.403       .  A
C969        H985   1.083       .  S
C970        C971   1.402       .  A
C970        H986   1.085       .  S
C971        C981   1.401       .  A
C971        C972   1.413       .  A
C972        C978   1.412       .  A
C972        C973   1.411       .  A
C973        C975   1.411       .  A
C973        C974   1.411       .  A
C974        C982   1.402       .  A
C975        C984   1.402       .  A
C975        C976   1.404       .  A
C976        C977   1.399       .  A
C976        H987   1.084       .  S
C977        C978   1.404       .  A
C977        H988   1.083       .  S
C978        C979   1.403       .  A
C979        C980   1.402       .  A
C979        H989   1.084       .  S
C980        C981   1.400       .  A
C981        H990   1.085       .  S
C982        C983   1.406       .  A
C982        H991   1.084       .  S
C983        C984   1.407       .  A
C984        H992   1.085       .  S
C993        C994   1.396       .  A
C993        C998   1.402       .  A
C993       H1009   1.085       .  S
C994        C995   1.403       .  A
C994       H1010   1.082       .  S
C995       C1005   1.398       .  A
C995        C996   1.410       .  A
C996       C1002   1.412       .  A
C996        C997   1.410       .  A
C997        C999   1.411       .  A
C997        C998   1.411       .  A
C998       C1006   1.398       .  A
C999       C1008   1.404       .  A
C999       C1000   1.404       .  A
C1000      C1001   1.400       .  A
C1000      H1011   1.083       .  S
C1001      C1002   1.404       .  A
C1001      H1012   1.084       .  S
C1002      C1003   1.404       .  A
C1003      C1004   1.406       .  A
C1003      H1013   1.085       .  S
C1004      C1005   1.405       .  A
C1005      H1014   1.084       .  S
C1006      C1007   1.406       .  A
C1006      H1015   1.085       .  S
C1007      C1008   1.408       .  A
C1008      H1016   1.084       .  S
C1017      C1018   1.401       .  A
C1017      C1022   1.404       .  A
C1017      H1033   1.085       .  S
C1018      C1019   1.405       .  A
C1018      H1034   1.082       .  S
C1019      C1029   1.406       .  A
C1019      C1020   1.411       .  A
C1020      C1026   1.412       .  A
C1020      C1021   1.413       .  A
C1021      C1023   1.410       .  A
C1021      C1022   1.412       .  A
C1022      C1030   1.406       .  A
C1023      C1032   1.402       .  A
C1023      C1024   1.404       .  A
C1024      C1025   1.398       .  A
C1024      H1035   1.082       .  S
C1025      C1026   1.402       .  A
C1025      H1036   1.085       .  S
C1026      C1027   1.403       .  A
C1027      C1028   1.406       .  A
C1027      H1037   1.086       .  S
C1028      C1029   1.410       .  A
C1029      H1038   1.083       .  S
C1030      C1031   1.408       .  A
C1030      H1039   1.085       .  S
C1031      C1032   1.409       .  A
C1032      H1040   1.083       .  S
C1041      C1042   1.400       .  A
C1041      C1046   1.404       .  A
C1041      H1057   1.083       .  S
C1042      C1043   1.403       .  A
C1042      H1058   1.084       .  S
C1043      C1053   1.405       .  A
C1043      C1044   1.413       .  A
C1044      C1050   1.409       .  A
C1044      C1045   1.410       .  A
C1045      C1047   1.412       .  A
C1045      C1046   1.411       .  A
C1046      C1054   1.403       .  A
C1047      C1056   1.400       .  A
C1047      C1048   1.402       .  A
C1048      C1049   1.397       .  A
C1048      H1059   1.084       .  S
C1049      C1050   1.403       .  A
C1049      H1060   1.083       .  S
C1050      C1051   1.397       .  A
C1051      C1052   1.408       .  A
C1051      H1061   1.084       .  S
C1052      C1053   1.406       .  A
C1053      H1062   1.084       .  S
C1054      C1055   1.406       .  A
C1054      H1063   1.084       .  S
C1055      C1056   1.405       .  A
C1056      H1064   1.085       .  S
C1065      C1066   1.397       .  A
C1065      C1070   1.403       .  A
C1065      H1081   1.084       .  S
C1066      C1067   1.403       .  A
C1066      H1082   1.083       .  S
C1067      C1077   1.401       .  A
C1067      C1068   1.412       .  A
C1068      C1074   1.411   1_455  A
C1068      C1069   1.410   1_455  A
C1069      C1071   1.412       .  A
C1069      C1070   1.411   1_655  A
C1070      C1078   1.399       .  A
C1071      C1080   1.403       .  A
C1071      C1072   1.404       .  A
C1072      C1073   1.399       .  A
C1072      H1083   1.083       .  S
C1073      C1074   1.404       .  A
C1073      H1084   1.084       .  S
C1074      C1075   1.401       .  A
C1075      C1076   1.407   1_655  A
C1075      H1085   1.085       .  S
C1076      C1077   1.405       .  A
C1077      H1086   1.084       .  S
C1078      C1079   1.406   1_455  A
C1078      H1087   1.085       .  S
C1079      C1080   1.406       .  A
C1080      H1088   1.084       .  S
C1089      C1090   1.403       .  A
C1089      C1094   1.405       .  A
C1089      H1105   1.083       .  S
C1090      C1091   1.404       .  A
C1090      H1106   1.084       .  S
C1091      C1101   1.410       .  A
C1091      C1092   1.413       .  A
C1092      C1098   1.412       .  A
C1092      C1093   1.417       .  A
C1093      C1095   1.411       .  A
C1093      C1094   1.411       .  A
C1094      C1102   1.409       .  A
C1095      C1104   1.406       .  A
C1095      C1096   1.404       .  A
C1096      C1097   1.400       .  A
C1096      H1107   1.084       .  S
C1097      C1098   1.404       .  A
C1097      H1108   1.083       .  S
C1098      C1099   1.406       .  A
C1099      C1100   1.405       .  A
C1099      H1109   1.084       .  S
C1100      C1101   1.407       .  A
C1101      H1110   1.085       .  S
C1102      C1103   1.410       .  A
C1102      H1111   1.083       .  S
C1103      C1104   1.410       .  A
C1104      H1112   1.085       .  S
C1113      C1114   1.402       .  A
C1113      C1118   1.406       .  A
C1113      H1129   1.082       .  S
C1114      C1115   1.404       .  A
C1114      H1130   1.085       .  S
C1115      C1125   1.409       .  A
C1115      C1116   1.413       .  A
C1116      C1122   1.410       .  A
C1116      C1117   1.415       .  A
C1117      C1119   1.412       .  A
C1117      C1118   1.411       .  A
C1118      C1126   1.409       .  A
C1119      C1128   1.403       .  A
C1119      C1120   1.403       .  A
C1120      C1121   1.398       .  A
C1120      H1131   1.085       .  S
C1121      C1122   1.404       .  A
C1121      H1132   1.082       .  S
C1122      C1123   1.401       .  A
C1123      C1124   1.408       .  A
C1123      H1133   1.083       .  S
C1124      C1125   1.408       .  A
C1125      H1134   1.085       .  S
C1126      C1127   1.411       .  A
C1126      H1135   1.083       .  S
C1127      C1128   1.408       .  A
C1128      H1136   1.085       .  S
C1137      C1138   1.398       .  A
C1137      C1142   1.403       .  A
C1137      H1153   1.083       .  S
C1138      C1139   1.403       .  A
C1138      H1154   1.085       .  S
C1139      C1149   1.399       .  A
C1139      C1140   1.411       .  A
C1140      C1146   1.412       .  A
C1140      C1141   1.409       .  A
C1141      C1143   1.411       .  A
C1141      C1142   1.412       .  A
C1142      C1150   1.401       .  A
C1143      C1152   1.399       .  A
C1143      C1144   1.403       .  A
C1144      C1145   1.398       .  A
C1144      H1155   1.085       .  S
C1145      C1146   1.403       .  A
C1145      H1156   1.083       .  S
C1146      C1147   1.401       .  A
C1147      C1148   1.405       .  A
C1147      H1157   1.084       .  S
C1148      C1149   1.406       .  A
C1149      H1158   1.085       .  S
C1150      C1151   1.406       .  A
C1150      H1159   1.084       .  S
C1151      C1152   1.406       .  A
C1152      H1160   1.085       .  S
C1161      C1162   1.391       .  A
C1161      C1166   1.401       .  A
C1161      H1177   1.083       .  S
C1162      C1163   1.400       .  A
C1162      H1178   1.085       .  S
C1163      C1173   1.391       .  A
C1163      C1164   1.411       .  A
C1164      C1170   1.412       .  A
C1164      C1165   1.407       .  A
C1165      C1167   1.412       .  A
C1165      C1166   1.409       .  A
C1166      C1174   1.389       .  A
C1167      C1176   1.407       .  A
C1167      C1168   1.405       .  A
C1168      C1169   1.402       .  A
C1168      H1179   1.084       .  S
C1169      C1170   1.405       .  A
C1169      H1180   1.083       .  S
C1170      C1171   1.406       .  A
C1171      C1172   1.407       .  A
C1171      H1181   1.083       .  S
C1172      C1173   1.403       .  A
C1173      H1182   1.085       .  S
C1174      C1175   1.405       .  A
C1174      H1183   1.084       .  S
C1175      C1176   1.408       .  A
C1176      H1184   1.084       .  S
C1185      C1186   1.398       .  A
C1185      C1190   1.404       .  A
C1185      H1201   1.082       .  S
C1186      C1187   1.403       .  A
C1186      H1202   1.085       .  S
C1187      C1197   1.402       .  A
C1187      C1188   1.412       .  A
C1188      C1194   1.412       .  A
C1188      C1189   1.412       .  A
C1189      C1191   1.412       .  A
C1189      C1190   1.411       .  A
C1190      C1198   1.402       .  A
C1191      C1200   1.403       .  A
C1191      C1192   1.403       .  A
C1192      C1193   1.400       .  A
C1192      H1203   1.085       .  S
C1193      C1194   1.404       .  A
C1193      H1204   1.082       .  S
C1194      C1195   1.405       .  A
C1195      C1196   1.406       .  A
C1195      H1205   1.083       .  S
C1196      C1197   1.405       .  A
C1197      H1206   1.086       .  S
C1198      C1199   1.408       .  A
C1198      H1207   1.083       .  S
C1199      C1200   1.407       .  A
C1200      H1208   1.085       .  S
C1209      C1210   1.391       .  A
C1209      C1214   1.401       .  A
C1209      H1225   1.083       .  S
C1210      C1211   1.400       .  A
C1210      H1226   1.085       .  S
C1211      C1221   1.390       .  A
C1211      C1212   1.411       .  A
C1212      C1218   1.411       .  A
C1212      C1213   1.406       .  A
C1213      C1215   1.413       .  A
C1213      C1214   1.409       .  A
C1214      C1222   1.389       .  A
C1215      C1224   1.407       .  A
C1215      C1216   1.405       .  A
C1216      C1217   1.402       .  A
C1216      H1227   1.084       .  S
C1217      C1218   1.405       .  A
C1217      H1228   1.083       .  S
C1218      C1219   1.405       .  A
C1219      C1220   1.409       .  A
C1219      H1229   1.083       .  S
C1220      C1221   1.402       .  A
C1221      H1230   1.085       .  S
C1222      C1223   1.404       .  A
C1222      H1231   1.085       .  S
C1223      C1224   1.407       .  A
C1224      H1232   1.084       .  S
C1233      C1234   1.398       .  A
C1233      C1238   1.403       .  A
C1233      H1249   1.083       .  S
C1234      C1235   1.403       .  A
C1234      H1250   1.084       .  S
C1235      C1245   1.400       .  A
C1235      C1236   1.412       .  A
C1236      C1242   1.412       .  A
C1236      C1237   1.409       .  A
C1237      C1239   1.411       .  A
C1237      C1238   1.413       .  A
C1238      C1246   1.401       .  A
C1239      C1248   1.398       .  A
C1239      C1240   1.403       .  A
C1240      C1241   1.398       .  A
C1240      H1251   1.084       .  S
C1241      C1242   1.403       .  A
C1241      H1252   1.083       .  S
C1242      C1243   1.401       .  A
C1243      C1244   1.404       .  A
C1243      H1253   1.085       .  S
C1244      C1245   1.404       .  A
C1245      H1254   1.085       .  S
C1246      C1247   1.404       .  A
C1246      H1255   1.084       .  S
C1247      C1248   1.404       .  A
C1248      H1256   1.085       .  S
C1257      C1258   1.395       .  A
C1257      C1262   1.401       .  A
C1257      H1273   1.085       .  S
C1258      C1259   1.402       .  A
C1258      H1274   1.083       .  S
C1259      C1269   1.399       .  A
C1259      C1260   1.410       .  A
C1260      C1266   1.412       .  A
C1260      C1261   1.414       .  A
C1261      C1263   1.412       .  A
C1261      C1262   1.412       .  A
C1262      C1270   1.399       .  A
C1263      C1272   1.411       .  A
C1263      C1264   1.406       .  A
C1264      C1265   1.405       .  A
C1264      H1275   1.082   1_545  S
C1265      C1266   1.406       .  A
C1265      H1276   1.084   1_545  S
C1266      C1267   1.411       .  A
C1267      C1268   1.411       .  A
C1267      H1277   1.084       .  S
C1268      C1269   1.406       .  A
C1269      H1278   1.084       .  S
C1270      C1271   1.401       .  A
C1270      H1279   1.086       .  S
C1271      C1272   1.409       .  A
C1272      H1280   1.084       .  S
C1281      C1282   1.399       .  A
C1281      C1286   1.404       .  A
C1281      H1297   1.082       .  S
C1282      C1283   1.403       .  A
C1282      H1298   1.085       .  S
C1283      C1293   1.402       .  A
C1283      C1284   1.411       .  A
C1284      C1290   1.413       .  A
C1284      C1285   1.414       .  A
C1285      C1287   1.410       .  A
C1285      C1286   1.412       .  A
C1286      C1294   1.406       .  A
C1287      C1296   1.404       .  A
C1287      C1288   1.404       .  A
C1288      C1289   1.400       .  A
C1288      H1299   1.085       .  S
C1289      C1290   1.404       .  A
C1289      H1300   1.082       .  S
C1290      C1291   1.407       .  A
C1291      C1292   1.407       .  A
C1291      H1301   1.083       .  S
C1292      C1293   1.407       .  A
C1293      H1302   1.086       .  S
C1294      C1295   1.409       .  A
C1294      H1303   1.083       .  S
C1295      C1296   1.410       .  A
C1296      H1304   1.085       .  S
C1305      C1306   1.396       .  A
C1305      C1310   1.403       .  A
C1305      H1321   1.083       .  S
C1306      C1307   1.402       .  A
C1306      H1322   1.085       .  S
C1307      C1317   1.398       .  A
C1307      C1308   1.412       .  A
C1308      C1314   1.412       .  A
C1308      C1309   1.409       .  A
C1309      C1311   1.412       .  A
C1309      C1310   1.411       .  A
C1310      C1318   1.399       .  A
C1311      C1320   1.402       .  A
C1311      C1312   1.404       .  A
C1312      C1313   1.399       .  A
C1312      H1323   1.085       .  S
C1313      C1314   1.404       .  A
C1313      H1324   1.082       .  S
C1314      C1315   1.403       .  A
C1315      C1316   1.406       .  A
C1315      H1325   1.084       .  S
C1316      C1317   1.404       .  A
C1317      H1326   1.085       .  S
C1318      C1319   1.404       .  A
C1318      H1327   1.084       .  S
C1319      C1320   1.407       .  A
C1320      H1328   1.085       .  S
C1329      C1330   1.399       .  A
C1329      C1334   1.404       .  A
C1329      H1345   1.082       .  S
C1330      C1331   1.403       .  A
C1330      H1346   1.085       .  S
C1331      C1341   1.401       .  A
C1331      C1332   1.411       .  A
C1332      C1338   1.413       .  A
C1332      C1333   1.414       .  A
C1333      C1335   1.411       .  A
C1333      C1334   1.411       .  A
C1334      C1342   1.404       .  A
C1335      C1344   1.405       .  A
C1335      C1336   1.404       .  A
C1336      C1337   1.401       .  A
C1336      H1347   1.085       .  S
C1337      C1338   1.404       .  A
C1337      H1348   1.082       .  S
C1338      C1339   1.407       .  A
C1339      C1340   1.407       .  A
C1339      H1349   1.084       .  S
C1340      C1341   1.407       .  A
C1341      H1350   1.085       .  S
C1342      C1343   1.408       .  A
C1342      H1351   1.083       .  S
C1343      C1344   1.409       .  A
C1344      H1352   1.085       .  S
C1353      C1354   1.398       .  A
C1353      C1358   1.404       .  A
C1353      H1369   1.083       .  S
C1354      C1355   1.403       .  A
C1354      H1370   1.085       .  S
C1355      C1365   1.401       .  A
C1355      C1356   1.412       .  A
C1356      C1362   1.411       .  A
C1356      C1357   1.411       .  A
C1357      C1359   1.413       .  A
C1357      C1358   1.410       .  A
C1358      C1366   1.400       .  A
C1359      C1368   1.403       .  A
C1359      C1360   1.403       .  A
C1360      C1361   1.399       .  A
C1360      H1371   1.085       .  S
C1361      C1362   1.403       .  A
C1361      H1372   1.083       .  S
C1362      C1363   1.402       .  A
C1363      C1364   1.405       .  A
C1363      H1373   1.084       .  S
C1364      C1365   1.406       .  A
C1365      H1374   1.085       .  S
C1366      C1367   1.409       .  A
C1366      H1375   1.084       .  S
C1367      C1368   1.405       .  A
C1368      H1376   1.085       .  S
C1377      C1378   1.396       .  A
C1377      C1382   1.402       .  A
C1377      H1393   1.082       .  S
C1378      C1379   1.402       .  A
C1378      H1394   1.086       .  S
C1379      C1389   1.396       .  A
C1379      C1380   1.410       .  A
C1380      C1386   1.413   1_556  A
C1380      C1381   1.407   1_556  A
C1381      C1383   1.410       .  A
C1381      C1382   1.413   1_554  A
C1382      C1390   1.400   1_556  A
C1383      C1392   1.396       .  A
C1383      C1384   1.403       .  A
C1384      C1385   1.397       .  A
C1384      H1395   1.086       .  S
C1385      C1386   1.403       .  A
C1385      H1396   1.082       .  S
C1386      C1387   1.402   1_554  A
C1387      C1388   1.404       .  A
C1387      H1397   1.083   1_556  S
C1388      C1389   1.405       .  A
C1389      H1398   1.086       .  S
C1390      C1391   1.403       .  A
C1390      H1399   1.083   1_554  S
C1391      C1392   1.405       .  A
C1392      H1400   1.086       .  S
C1401      C1402   1.400       .  A
C1401      C1406   1.403       .  A
C1401      H1417   1.085       .  S
C1402      C1403   1.404       .  A
C1402      H1418   1.082       .  S
C1403      C1413   1.403       .  A
C1403      C1404   1.412       .  A
C1404      C1410   1.412       .  A
C1404      C1405   1.411       .  A
C1405      C1407   1.411       .  A
C1405      C1406   1.412       .  A
C1406      C1414   1.404       .  A
C1407      C1416   1.400       .  A
C1407      C1408   1.403       .  A
C1408      C1409   1.398       .  A
C1408      H1419   1.083       .  S
C1409      C1410   1.403       .  A
C1409      H1420   1.085       .  S
C1410      C1411   1.401       .  A
C1411      C1412   1.403       .  A
C1411      H1421   1.085       .  S
C1412      C1413   1.404       .  A
C1413      H1422   1.084       .  S
C1414      C1415   1.405       .  A
C1414      H1423   1.085       .  S
C1415      C1416   1.406       .  A
C1416      H1424   1.084       .  S
C1425      C1426   1.398       .  A
C1425      C1430   1.404   1_554  A
C1425      H1441   1.082       .  S
C1426      C1427   1.402       .  A
C1426      H1442   1.085       .  S
C1427      C1437   1.402       .  A
C1427      C1428   1.411   1_554  A
C1428      C1434   1.411       .  A
C1428      C1429   1.416       .  A
C1429      C1431   1.412       .  A
C1429      C1430   1.410       .  A
C1430      C1438   1.402       .  A
C1431      C1440   1.411       .  A
C1431      C1432   1.405       .  A
C1432      C1433   1.403       .  A
C1432      H1443   1.085       .  S
C1433      C1434   1.406       .  A
C1433      H1444   1.082       .  S
C1434      C1435   1.410   1_556  A
C1435      C1436   1.411       .  A
C1435      H1445   1.083   1_554  S
C1436      C1437   1.407       .  A
C1437      H1446   1.085       .  S
C1438      C1439   1.408       .  A
C1438      H1447   1.083       .  S
C1439      C1440   1.411       .  A
C1440      H1448   1.085       .  S
C1449      C1450   1.400       .  A
C1449      C1454   1.404       .  A
C1449      H1465   1.083       .  S
C1450      C1451   1.404       .  A
C1450      H1466   1.084       .  S
C1451      C1461   1.404       .  A
C1451      C1452   1.412       .  A
C1452      C1458   1.410       .  A
C1452      C1453   1.410       .  A
C1453      C1455   1.412       .  A
C1453      C1454   1.411       .  A
C1454      C1462   1.403       .  A
C1455      C1464   1.400       .  A
C1455      C1456   1.402       .  A
C1456      C1457   1.397       .  A
C1456      H1467   1.084       .  S
C1457      C1458   1.403       .  A
C1457      H1468   1.083       .  S
C1458      C1459   1.399       .  A
C1459      C1460   1.406       .  A
C1459      H1469   1.084       .  S
C1460      C1461   1.407       .  A
C1461      H1470   1.084       .  S
C1462      C1463   1.408       .  A
C1462      H1471   1.084       .  S
C1463      C1464   1.405       .  A
C1464      H1472   1.085       .  S
C1473      C1474   1.397       .  A
C1473      C1478   1.402       .  A
C1473      H1489   1.085       .  S
C1474      C1475   1.403   1_556  A
C1474      H1490   1.082       .  S
C1475      C1485   1.401       .  A
C1475      C1476   1.411       .  A
C1476      C1482   1.411       .  A
C1476      C1477   1.412       .  A
C1477      C1479   1.412       .  A
C1477      C1478   1.411   1_554  A
C1478      C1486   1.399       .  A
C1479      C1488   1.406   1_554  A
C1479      C1480   1.404       .  A
C1480      C1481   1.401       .  A
C1480      H1491   1.082       .  S
C1481      C1482   1.405       .  A
C1481      H1492   1.084       .  S
C1482      C1483   1.405       .  A
C1483      C1484   1.410       .  A
C1483      H1493   1.085       .  S
C1484      C1485   1.407       .  A
C1485      H1494   1.083       .  S
C1486      C1487   1.404       .  A
C1486      H1495   1.086       .  S
C1487      C1488   1.408       .  A
C1488      H1496   1.084       .  S
C1497      C1498   1.398       .  A
C1497      C1502   1.403       .  A
C1497      H1513   1.084       .  S
C1498      C1499   1.403       .  A
C1498      H1514   1.084       .  S
C1499      C1509   1.403       .  A
C1499      C1500   1.412       .  A
C1500      C1506   1.411       .  A
C1500      C1501   1.413       .  A
C1501      C1503   1.413       .  A
C1501      C1502   1.410       .  A
C1502      C1510   1.401       .  A
C1503      C1512   1.407       .  A
C1503      C1504   1.404       .  A
C1504      C1505   1.401       .  A
C1504      H1515   1.084       .  S
C1505      C1506   1.405       .  A
C1505      H1516   1.083       .  S
C1506      C1507   1.405       .  A
C1507      C1508   1.409       .  A
C1507      H1517   1.084       .  S
C1508      C1509   1.407       .  A
C1509      H1518   1.084       .  S
C1510      C1511   1.407       .  A
C1510      H1519   1.084       .  S
C1511      C1512   1.408       .  A
C1512      H1520   1.084       .  S
C1521      C1522   1.395       .  A
C1521      C1526   1.402       .  A
C1521      H1537   1.083       .  S
C1522      C1523   1.402       .  A
C1522      H1538   1.085       .  S
C1523      C1533   1.396       .  A
C1523      C1524   1.411       .  A
C1524      C1530   1.412       .  A
C1524      C1525   1.409       .  A
C1525      C1527   1.412       .  A
C1525      C1526   1.412       .  A
C1526      C1534   1.398       .  A
C1527      C1536   1.404       .  A
C1527      C1528   1.404       .  A
C1528      C1529   1.401       .  A
C1528      H1539   1.084       .  S
C1529      C1530   1.404       .  A
C1529      H1540   1.083       .  S
C1530      C1531   1.405       .  A
C1531      C1532   1.406       .  A
C1531      H1541   1.084       .  S
C1532      C1533   1.403       .  A
C1533      H1542   1.085       .  S
C1534      C1535   1.402       .  A
C1534      H1543   1.084       .  S
C1535      C1536   1.406       .  A
C1536      H1544   1.085       .  S
C1545      C1546   1.397       .  A
C1545      C1550   1.403       .  A
C1545      H1561   1.084       .  S
C1546      C1547   1.402       .  A
C1546      H1562   1.083       .  S
C1547      C1557   1.401       .  A
C1547      C1548   1.413       .  A
C1548      C1554   1.410       .  A
C1548      C1549   1.409       .  A
C1549      C1551   1.413       .  A
C1549      C1550   1.409       .  A
C1550      C1558   1.397       .  A
C1551      C1560   1.402       .  A
C1551      C1552   1.403       .  A
C1552      C1553   1.398       .  A
C1552      H1563   1.083       .  S
C1553      C1554   1.403       .  A
C1553      H1564   1.084       .  S
C1554      C1555   1.399       .  A
C1555      C1556   1.406       .  A
C1555      H1565   1.085       .  S
C1556      C1557   1.404       .  A
C1557      H1566   1.084       .  S
C1558      C1559   1.408       .  A
C1558      H1567   1.085       .  S
C1559      C1560   1.406       .  A
C1560      H1568   1.084       .  S
C1569      C1570   1.397       .  A
C1569      C1574   1.402       .  A
C1569      H1585   1.085       .  S
C1570      C1571   1.404       .  A
C1570      H1586   1.083       .  S
C1571      C1581   1.400       .  A
C1571      C1572   1.411       .  A
C1572      C1578   1.412       .  A
C1572      C1573   1.409       .  A
C1573      C1575   1.412       .  A
C1573      C1574   1.412       .  A
C1574      C1582   1.399       .  A
C1575      C1584   1.400       .  A
C1575      C1576   1.403       .  A
C1576      C1577   1.398       .  A
C1576      H1587   1.083       .  S
C1577      C1578   1.403       .  A
C1577      H1588   1.084       .  S
C1578      C1579   1.401       .  A
C1579      C1580   1.406       .  A
C1579      H1589   1.084       .  S
C1580      C1581   1.408       .  A
C1581      H1590   1.083       .  S
C1582      C1583   1.404       .  A
C1582      H1591   1.085       .  S
C1583      C1584   1.404       .  A
C1584      H1592   1.084       .  S
C1593      C1594   1.401       .  A
C1593      C1598   1.404       .  A
C1593      H1609   1.083       .  S
C1594      C1595   1.404       .  A
C1594      H1610   1.084       .  S
C1595      C1605   1.407       .  A
C1595      C1596   1.413       .  A
C1596      C1602   1.408       .  A
C1596      C1597   1.408       .  A
C1597      C1599   1.412       .  A
C1597      C1598   1.411       .  A
C1598      C1606   1.403       .  A
C1599      C1608   1.394       .  A
C1599      C1600   1.400       .  A
C1600      C1601   1.393       .  A
C1600      H1611   1.085       .  S
C1601      C1602   1.402       .  A
C1601      H1612   1.083       .  S
C1602      C1603   1.392       .  A
C1603      C1604   1.408       .  A
C1603      H1613   1.084       .  S
C1604      C1605   1.406       .  A
C1605      H1614   1.084       .  S
C1606      C1607   1.407       .  A
C1606      H1615   1.084       .  S
C1607      C1608   1.402       .  A
C1608      H1616   1.085       .  S
C1617      C1618   1.401       .  A
C1617      C1622   1.405       .  A
C1617      H1633   1.083       .  S
C1618      C1619   1.404       .  A
C1618      H1634   1.084       .  S
C1619      C1629   1.407       .  A
C1619      C1620   1.412       .  A
C1620      C1626   1.411       .  A
C1620      C1621   1.413       .  A
C1621      C1623   1.411       .  A
C1621      C1622   1.411       .  A
C1622      C1630   1.407       .  A
C1623      C1632   1.401       .  A
C1623      C1624   1.403       .  A
C1624      C1625   1.397       .  A
C1624      H1635   1.085       .  S
C1625      C1626   1.403       .  A
C1625      H1636   1.083       .  S
C1626      C1627   1.401       .  A
C1627      C1628   1.407       .  A
C1627      H1637   1.084       .  S
C1628      C1629   1.408       .  A
C1629      H1638   1.084       .  S
C1630      C1631   1.410       .  A
C1630      H1639   1.084       .  S
C1631      C1632   1.407       .  A
C1632      H1640   1.085       .  S
C1641      C1642   1.402       .  A
C1641      C1646   1.405       .  A
C1641      H1657   1.083       .  S
C1642      C1643   1.404       .  A
C1642      H1658   1.084       .  S
C1643      C1653   1.406       .  A
C1643      C1644   1.412       .  A
C1644      C1650   1.410       .  A
C1644      C1645   1.410       .  A
C1645      C1647   1.410       .  A
C1645      C1646   1.412       .  A
C1646      C1654   1.408       .  A
C1647      C1656   1.395       .  A
C1647      C1648   1.402       .  A
C1648      C1649   1.394       .  A
C1648      H1659   1.084       .  S
C1649      C1650   1.402       .  A
C1649      H1660   1.083       .  S
C1650      C1651   1.395       .  A
C1651      C1652   1.407       .  A
C1651      H1661   1.084       .  S
C1652      C1653   1.407       .  A
C1653      H1662   1.084       .  S
C1654      C1655   1.408       .  A
C1654      H1663   1.084       .  S
C1655      C1656   1.406       .  A
C1656      H1664   1.085       .  S
C1665      C1666   1.397       .  A
C1665      C1670   1.400       .  A
C1665      H1681   1.091       .  S
C1666      C1667   1.405       .  A
C1666      H1682   1.077       .  S
C1667      C1677   1.399       .  A
C1667      C1668   1.408       .  A
C1668      C1674   1.414       .  A
C1668      C1669   1.408       .  A
C1669      C1671   1.408       .  A
C1669      C1670   1.415       .  A
C1670      C1678   1.400       .  A
C1671      C1680   1.398       .  A
C1671      C1672   1.405       .  A
C1672      C1673   1.397       .  A
C1672      H1683   1.077       .  S
C1673      C1674   1.401       .  A
C1673      H1684   1.090       .  S
C1674      C1675   1.400       .  A
C1675      C1676   1.403       .  A
C1675      H1685   1.088       .  S
C1676      C1677   1.409       .  A
C1677      H1686   1.080       .  S
C1678      C1679   1.401       .  A
C1678      H1687   1.089       .  S
C1679      C1680   1.409       .  A
C1680      H1688   1.080       .  S
C1689      C1690   1.400       .  A
C1689      C1694   1.404       .  A
C1689      H1705   1.084   1_565  S
C1690      C1691   1.404       .  A
C1690      H1706   1.083   1_565  S
C1691      C1701   1.404       .  A
C1691      C1692   1.412       .  A
C1692      C1698   1.412       .  A
C1692      C1693   1.411       .  A
C1693      C1695   1.411       .  A
C1693      C1694   1.412       .  A
C1694      C1702   1.405       .  A
C1695      C1704   1.400       .  A
C1695      C1696   1.403       .  A
C1696      C1697   1.397       .  A
C1696      H1707   1.083       .  S
C1697      C1698   1.402       .  A
C1697      H1708   1.084       .  S
C1698      C1699   1.400       .  A
C1699      C1700   1.404       .  A
C1699      H1709   1.085       .  S
C1700      C1701   1.405       .  A
C1701      H1710   1.084       .  S
C1702      C1703   1.406       .  A
C1702      H1711   1.085       .  S
C1703      C1704   1.404       .  A
C1704      H1712   1.084       .  S
C1713      C1714   1.401       .  A
C1713      C1718   1.405       .  A
C1713      H1729   1.082       .  S
C1714      C1715   1.404       .  A
C1714      H1730   1.085       .  S
C1715      C1725   1.406       .  A
C1715      C1716   1.412       .  A
C1716      C1722   1.412       .  A
C1716      C1717   1.413       .  A
C1717      C1719   1.411       .  A
C1717      C1718   1.411       .  A
C1718      C1726   1.407       .  A
C1719      C1728   1.401       .  A
C1719      C1720   1.403       .  A
C1720      C1721   1.398       .  A
C1720      H1731   1.086       .  S
C1721      C1722   1.403       .  A
C1721      H1732   1.082       .  S
C1722      C1723   1.403       .  A
C1723      C1724   1.405       .  A
C1723      H1733   1.084       .  S
C1724      C1725   1.408       .  A
C1725      H1734   1.085       .  S
C1726      C1727   1.411       .  A
C1726      H1735   1.083       .  S
C1727      C1728   1.406       .  A
C1728      H1736   1.086       .  S
C1737      C1738   1.399       .  A
C1737      C1742   1.403       .  A
C1737      H1753   1.084       .  S
C1738      C1739   1.404       .  A
C1738      H1754   1.083       .  S
C1739      C1749   1.400       .  A
C1739      C1740   1.409       .  A
C1740      C1746   1.414       .  A
C1740      C1741   1.413       .  A
C1741      C1743   1.409       .  A
C1741      C1742   1.414       .  A
C1742      C1750   1.405       .  A
C1743      C1752   1.402       .  A
C1743      C1744   1.405       .  A
C1744      C1745   1.400       .  A
C1744      H1755   1.083       .  S
C1745      C1746   1.403       .  A
C1745      H1756   1.084       .  S
C1746      C1747   1.408       .  A
C1747      C1748   1.406       .  A
C1747      H1757   1.085       .  S
C1748      C1749   1.409       .  A
C1749      H1758   1.084       .  S
C1750      C1751   1.405       .  A
C1750      H1759   1.085       .  S
C1751      C1752   1.410       .  A
C1752      H1760   1.084       .  S
C1761      C1762   1.400       .  A
C1761      C1766   1.404       .  A
C1761      H1777   1.083       .  S
C1762      C1763   1.403       .  A
C1762      H1778   1.084       .  S
C1763      C1773   1.406       .  A
C1763      C1764   1.413       .  A
C1764      C1770   1.409       .  A
C1764      C1765   1.413       .  A
C1765      C1767   1.413       .  A
C1765      C1766   1.410       .  A
C1766      C1774   1.404       .  A
C1767      C1776   1.405       .  A
C1767      C1768   1.403       .  A
C1768      C1769   1.399       .  A
C1768      H1779   1.085       .  S
C1769      C1770   1.404       .  A
C1769      H1780   1.082       .  S
C1770      C1771   1.402       .  A
C1771      C1772   1.410       .  A
C1771      H1781   1.083       .  S
C1772      C1773   1.408       .  A
C1773      H1782   1.085       .  S
C1774      C1775   1.409       .  A
C1774      H1783   1.084       .  S
C1775      C1776   1.407       .  A
C1776      H1784   1.085       .  S
C1785      C1786   1.398       .  A
C1785      C1790   1.403       .  A
C1785      H1801   1.083       .  S
C1786      C1787   1.403       .  A
C1786      H1802   1.084       .  S
C1787      C1797   1.400       .  A
C1787      C1788   1.412       .  A
C1788      C1794   1.411       .  A
C1788      C1789   1.408       .  A
C1789      C1791   1.412       .  A
C1789      C1790   1.411       .  A
C1790      C1798   1.400       .  A
C1791      C1800   1.398       .  A
C1791      C1792   1.402       .  A
C1792      C1793   1.396       .  A
C1792      H1803   1.084       .  S
C1793      C1794   1.402       .  A
C1793      H1804   1.083       .  S
C1794      C1795   1.398       .  A
C1795      C1796   1.405       .  A
C1795      H1805   1.084       .  S
C1796      C1797   1.406       .  A
C1797      H1806   1.085       .  S
C1798      C1799   1.406       .  A
C1798      H1807   1.084       .  S
C1799      C1800   1.404       .  A
C1800      H1808   1.085       .  S
C1809      C1810   1.401       .  A
C1809      C1814   1.404       .  A
C1809      H1825   1.083       .  S
C1810      C1811   1.404       .  A
C1810      H1826   1.085       .  S
C1811      C1821   1.406       .  A
C1811      C1812   1.412       .  A
C1812      C1818   1.412       .  A
C1812      C1813   1.414       .  A
C1813      C1815   1.412       .  A
C1813      C1814   1.412       .  A
C1814      C1822   1.406       .  A
C1815      C1824   1.404       .  A
C1815      C1816   1.404       .  A
C1816      C1817   1.400       .  A
C1816      H1827   1.084       .  S
C1817      C1818   1.404       .  A
C1817      H1828   1.083       .  S
C1818      C1819   1.405       .  A
C1819      C1820   1.407       .  A
C1819      H1829   1.084       .  S
C1820      C1821   1.407       .  A
C1821      H1830   1.085       .  S
C1822      C1823   1.406       .  A
C1822      H1831   1.084       .  S
C1823      C1824   1.407       .  A
C1824      H1832   1.085       .  S
C1833      C1834   1.398       .  A
C1833      C1838   1.403       .  A
C1833      H1849   1.085       .  S
C1834      C1835   1.404       .  A
C1834      H1850   1.082       .  S
C1835      C1845   1.402       .  A
C1835      C1836   1.410       .  A
C1836      C1842   1.412       .  A
C1836      C1837   1.415       .  A
C1837      C1839   1.411       .  A
C1837      C1838   1.411       .  A
C1838      C1846   1.403       .  A
C1839      C1848   1.409       .  A
C1839      C1840   1.405       .  A
C1840      C1841   1.403       .  A
C1840      H1851   1.082       .  S
C1841      C1842   1.404       .  A
C1841      H1852   1.084       .  S
C1842      C1843   1.410       .  A
C1843      C1844   1.409       .  A
C1843      H1853   1.085       .  S
C1844      C1845   1.409       .  A
C1845      H1854   1.083       .  S
C1846      C1847   1.408       .  A
C1846      H1855   1.085       .  S
C1847      C1848   1.411       .  A
C1848      H1856   1.083       .  S
C1857      C1858   1.398       .  A
C1857      C1862   1.404       .  A
C1857      H1873   1.083       .  S
C1858      C1859   1.403       .  A
C1858      H1874   1.084       .  S
C1859      C1869   1.401       .  A
C1859      C1860   1.412       .  A
C1860      C1866   1.411       .  A
C1860      C1861   1.411       .  A
C1861      C1863   1.412       .  A
C1861      C1862   1.410       .  A
C1862      C1870   1.400       .  A
C1863      C1872   1.404       .  A
C1863      C1864   1.403       .  A
C1864      C1865   1.399       .  A
C1864      H1875   1.085       .  S
C1865      C1866   1.404       .  A
C1865      H1876   1.083       .  S
C1866      C1867   1.403       .  A
C1867      C1868   1.405       .  A
C1867      H1877   1.084       .  S
C1868      C1869   1.406       .  A
C1869      H1878   1.085       .  S
C1870      C1871   1.408       .  A
C1870      H1879   1.084       .  S
C1871      C1872   1.406       .  A
C1872      H1880   1.085       .  S
C1881      C1882   1.400       .  A
C1881      C1886   1.404       .  A
C1881      H1897   1.082       .  S
C1882      C1883   1.403       .  A
C1882      H1898   1.085       .  S
C1883      C1893   1.402       .  A
C1883      C1884   1.411       .  A
C1884      C1890   1.410       .  A
C1884      C1885   1.407       .  A
C1885      C1887   1.410       .  A
C1885      C1886   1.412       .  A
C1886      C1894   1.404       .  A
C1887      C1896   1.393       .  A
C1887      C1888   1.401       .  A
C1888      C1889   1.394       .  A
C1888      H1899   1.085       .  S
C1889      C1890   1.402       .  A
C1889      H1900   1.082       .  S
C1890      C1891   1.395       .  A
C1891      C1892   1.406       .  A
C1891      H1901   1.083       .  S
C1892      C1893   1.406       .  A
C1893      H1902   1.085       .  S
C1894      C1895   1.405       .  A
C1894      H1903   1.083       .  S
C1895      C1896   1.406       .  A
C1896      H1904   1.086       .  S
C1905      C1906   1.397       .  A
C1905      C1910   1.403       .  A
C1905      H1921   1.083       .  S
C1906      C1907   1.402       .  A
C1906      H1922   1.085       .  S
C1907      C1917   1.400       .  A
C1907      C1908   1.413   1_455  A
C1908      C1914   1.410       .  A
C1908      C1909   1.409       .  A
C1909      C1911   1.413       .  A
C1909      C1910   1.410   1_655  A
C1910      C1918   1.397       .  A
C1911      C1920   1.403       .  A
C1911      C1912   1.403       .  A
C1912      C1913   1.398       .  A
C1912      H1923   1.085       .  S
C1913      C1914   1.404       .  A
C1913      H1924   1.083       .  S
C1914      C1915   1.400       .  A
C1915      C1916   1.407   1_655  A
C1915      H1925   1.084       .  S
C1916      C1917   1.404       .  A
C1917      H1926   1.085       .  S
C1918      C1919   1.406   1_455  A
C1918      H1927   1.084       .  S
C1919      C1920   1.404       .  A
C1920      H1928   1.085       .  S
C1929      C1930   1.400       .  A
C1929      C1934   1.403       .  A
C1929      H1945   1.084       .  S
C1930      C1931   1.404       .  A
C1930      H1946   1.083       .  S
C1931      C1941   1.404       .  A
C1931      C1932   1.409       .  A
C1932      C1938   1.413       .  A
C1932      C1933   1.416       .  A
C1933      C1935   1.410       .  A
C1933      C1934   1.412       .  A
C1934      C1942   1.406       .  A
C1935      C1944   1.407       .  A
C1935      C1936   1.405       .  A
C1936      C1937   1.402       .  A
C1936      H1947   1.083       .  S
C1937      C1938   1.404       .  A
C1937      H1948   1.084       .  S
C1938      C1939   1.410       .  A
C1939      C1940   1.409       .  A
C1939      H1949   1.084       .  S
C1940      C1941   1.411       .  A
C1941      H1950   1.084       .  S
C1942      C1943   1.408       .  A
C1942      H1951   1.085       .  S
C1943      C1944   1.410       .  A
C1944      H1952   1.084       .  S
C1953      C1954   1.404       .  A
C1953      C1958   1.405       .  A
C1953      H1969   1.084       .  S
C1954      C1955   1.406       .  A
C1954      H1970   1.082       .  S
C1955      C1965   1.410       .  A
C1955      C1956   1.412       .  A
C1956      C1962   1.410       .  A
C1956      C1957   1.411       .  A
C1957      C1959   1.410       .  A
C1957      C1958   1.412       .  A
C1958      C1966   1.410       .  A
C1959      C1968   1.394       .  A
C1959      C1960   1.402       .  A
C1960      C1961   1.393       .  A
C1960      H1971   1.083       .  S
C1961      C1962   1.401       .  A
C1961      H1972   1.085       .  S
C1962      C1963   1.393       .  A
C1963      C1964   1.405       .  A
C1963      H1973   1.085       .  S
C1964      C1965   1.409       .  A
C1965      H1974   1.083       .  S
C1966      C1967   1.410       .  A
C1966      H1975   1.084       .  S
C1967      C1968   1.406       .  A
C1968      H1976   1.084       .  S
C1977      C1978   1.397       .  A
C1977      C1982   1.403       .  A
C1977      H1993   1.085       .  S
C1978      C1979   1.402       .  A
C1978      H1994   1.082       .  S
C1979      C1989   1.401   1_556  A
C1979      C1980   1.413   1_556  A
C1980      C1986   1.409       .  A
C1980      C1981   1.408   1_554  A
C1981      C1983   1.414   1_556  A
C1981      C1982   1.409       .  A
C1982      C1990   1.395       .  A
C1983      C1992   1.403   1_554  A
C1983      C1984   1.403       .  A
C1984      C1985   1.398       .  A
C1984      H1995   1.083       .  S
C1985      C1986   1.403       .  A
C1985      H1996   1.085       .  S
C1986      C1987   1.397       .  A
C1987      C1988   1.408       .  A
C1987      H1997   1.085       .  S
C1988      C1989   1.404       .  A
C1989      H1998   1.084   1_554  S
C1990      C1991   1.408       .  A
C1990      H1999   1.086       .  S
C1991      C1992   1.404       .  A
C1992      H2000   1.084   1_556  S
C2001      C2002   1.403       .  A
C2001      C2006   1.405       .  A
C2001      H2017   1.084   1_565  S
C2002      C2003   1.405       .  A
C2002      H2018   1.083   1_565  S
C2003      C2013   1.410       .  A
C2003      C2004   1.412       .  A
C2004      C2010   1.411       .  A
C2004      C2005   1.415       .  A
C2005      C2007   1.412       .  A
C2005      C2006   1.412       .  A
C2006      C2014   1.409       .  A
C2007      C2016   1.403       .  A
C2007      C2008   1.403       .  A
C2008      C2009   1.398       .  A
C2008      H2019   1.083       .  S
C2009      C2010   1.403       .  A
C2009      H2020   1.085       .  S
C2010      C2011   1.402       .  A
C2011      C2012   1.406       .  A
C2011      H2021   1.085       .  S
C2012      C2013   1.409       .  A
C2013      H2022   1.084       .  S
C2014      C2015   1.408       .  A
C2014      H2023   1.085       .  S
C2015      C2016   1.405       .  A
C2016      H2024   1.084       .  S
C2025      C2026   1.401       .  A
C2025      C2030   1.404       .  A
C2025      H2041   1.084       .  S
C2026      C2027   1.404       .  A
C2026      H2042   1.083       .  S
C2027      C2037   1.407   1_554  A
C2027      C2028   1.411   1_554  A
C2028      C2034   1.411       .  A
C2028      C2029   1.415   1_556  A
C2029      C2031   1.411       .  A
C2029      C2030   1.412       .  A
C2030      C2038   1.408       .  A
C2031      C2040   1.404       .  A
C2031      C2032   1.404   1_554  A
C2032      C2033   1.399       .  A
C2032      H2043   1.083       .  S
C2033      C2034   1.404       .  A
C2033      H2044   1.084       .  S
C2034      C2035   1.404       .  A
C2035      C2036   1.409       .  A
C2035      H2045   1.084       .  S
C2036      C2037   1.409       .  A
C2037      H2046   1.084   1_556  S
C2038      C2039   1.409       .  A
C2038      H2047   1.084       .  S
C2039      C2040   1.409       .  A
C2040      H2048   1.084       .  S
C2049      C2050   1.395       .  A
C2049      C2054   1.402       .  A
C2049      H2065   1.085       .  S
C2050      C2051   1.402       .  A
C2050      H2066   1.083       .  S
C2051      C2061   1.397       .  A
C2051      C2052   1.410       .  A
C2052      C2058   1.412       .  A
C2052      C2053   1.412       .  A
C2053      C2055   1.412       .  A
C2053      C2054   1.410       .  A
C2054      C2062   1.396       .  A
C2055      C2064   1.410       .  A
C2055      C2056   1.405       .  A
C2056      C2057   1.403       .  A
C2056      H2067   1.083       .  S
C2057      C2058   1.405       .  A
C2057      H2068   1.084       .  S
C2058      C2059   1.409       .  A
C2059      C2060   1.409       .  A
C2059      H2069   1.084       .  S
C2060      C2061   1.406       .  A
C2061      H2070   1.084       .  S
C2062      C2063   1.407       .  A
C2062      H2071   1.085       .  S
C2063      C2064   1.409       .  A
C2064      H2072   1.083       .  S
C2073      C2074   1.396       .  A
C2073      C2078   1.402       .  A
C2073      H2089   1.082       .  S
C2074      C2075   1.402       .  A
C2074      H2090   1.085       .  S
C2075      C2085   1.398       .  A
C2075      C2076   1.411       .  A
C2076      C2082   1.412       .  A
C2076      C2077   1.413       .  A
C2077      C2079   1.411       .  A
C2077      C2078   1.411       .  A
C2078      C2086   1.399       .  A
C2079      C2088   1.408       .  A
C2079      C2080   1.405       .  A
C2080      C2081   1.403   1_565  A
C2080      H2091   1.084   1_565  S
C2081      C2082   1.406   1_545  A
C2081      H2092   1.082       .  S
C2082      C2083   1.410   1_565  A
C2083      C2084   1.410       .  A
C2083      H2093   1.083       .  S
C2084      C2085   1.405   1_545  A
C2085      H2094   1.086       .  S
C2086      C2087   1.406       .  A
C2086      H2095   1.084       .  S
C2087      C2088   1.411       .  A
C2088      H2096   1.084       .  S
C2097      C2098   1.397       .  A
C2097      C2102   1.403       .  A
C2097      H2113   1.082       .  S
C2098      C2099   1.402       .  A
C2098      H2114   1.085       .  S
C2099      C2109   1.401       .  A
C2099      C2100   1.412       .  A
C2100      C2106   1.411       .  A
C2100      C2101   1.413       .  A
C2101      C2103   1.413       .  A
C2101      C2102   1.409       .  A
C2102      C2110   1.399       .  A
C2103      C2112   1.408       .  A
C2103      C2104   1.404       .  A
C2104      C2105   1.402       .  A
C2104      H2115   1.084       .  S
C2105      C2106   1.405       .  A
C2105      H2116   1.082       .  S
C2106      C2107   1.406       .  A
C2107      C2108   1.410       .  A
C2107      H2117   1.083       .  S
C2108      C2109   1.407       .  A
C2109      H2118   1.085       .  S
C2110      C2111   1.408       .  A
C2110      H2119   1.084       .  S
C2111      C2112   1.407       .  A
C2112      H2120   1.085       .  S
C2121      C2122   1.397       .  A
C2121      C2126   1.403       .  A
C2121      H2137   1.083       .  S
C2122      C2123   1.402       .  A
C2122      H2138   1.084       .  S
C2123      C2133   1.397       .  A
C2123      C2124   1.412       .  A
C2124      C2130   1.412       .  A
C2124      C2125   1.408       .  A
C2125      C2127   1.412       .  A
C2125      C2126   1.411       .  A
C2126      C2134   1.399       .  A
C2127      C2136   1.401       .  A
C2127      C2128   1.403       .  A
C2128      C2129   1.398       .  A
C2128      H2139   1.084       .  S
C2129      C2130   1.403       .  A
C2129      H2140   1.083       .  S
C2130      C2131   1.401       .  A
C2131      C2132   1.403       .  A
C2131      H2141   1.084       .  S
C2132      C2133   1.403       .  A
C2133      H2142   1.085       .  S
C2134      C2135   1.408       .  A
C2134      H2143   1.084       .  S
C2135      C2136   1.406       .  A
C2136      H2144   1.084       .  S
C2145      C2146   1.393       .  A
C2145      C2150   1.400       .  A
C2145      H2161   1.087       .  S
C2146      C2147   1.402       .  A
C2146      H2162   1.081       .  S
C2147      C2157   1.393       .  A
C2147      C2148   1.409       .  A
C2148      C2154   1.412       .  A
C2148      C2149   1.407       .  A
C2149      C2151   1.412       .  A
C2149      C2150   1.411       .  A
C2150      C2158   1.391       .  A
C2151      C2160   1.405       .  A
C2151      C2152   1.405       .  A
C2152      C2153   1.401       .  A
C2152      H2163   1.081       .  S
C2153      C2154   1.404       .  A
C2153      H2164   1.086       .  S
C2154      C2155   1.404       .  A
C2155      C2156   1.406       .  A
C2155      H2165   1.086       .  S
C2156      C2157   1.406       .  A
C2157      H2166   1.082       .  S
C2158      C2159   1.402       .  A
C2158      H2167   1.087       .  S
C2159      C2160   1.407       .  A
C2160      H2168   1.082       .  S
C2169      C2170   1.400       .  A
C2169      C2174   1.404       .  A
C2169      H2185   1.082       .  S
C2170      C2171   1.404       .  A
C2170      H2186   1.085       .  S
C2171      C2181   1.403       .  A
C2171      C2172   1.412       .  A
C2172      C2178   1.412       .  A
C2172      C2173   1.412       .  A
C2173      C2175   1.413       .  A
C2173      C2174   1.411       .  A
C2174      C2182   1.403       .  A
C2175      C2184   1.403       .  A
C2175      C2176   1.403       .  A
C2176      C2177   1.399       .  A
C2176      H2187   1.085       .  S
C2177      C2178   1.403       .  A
C2177      H2188   1.083       .  S
C2178      C2179   1.403       .  A
C2179      C2180   1.405       .  A
C2179      H2189   1.084       .  S
C2180      C2181   1.407       .  A
C2181      H2190   1.085       .  S
C2182      C2183   1.407       .  A
C2182      H2191   1.084       .  S
C2183      C2184   1.403       .  A
C2184      H2192   1.085       .  S
C2193      C2194   1.398       .  A
C2193      C2198   1.404       .  A
C2193      H2209   1.082       .  S
C2194      C2195   1.403       .  A
C2194      H2210   1.085       .  S
C2195      C2205   1.402       .  A
C2195      C2196   1.412       .  A
C2196      C2202   1.411       .  A
C2196      C2197   1.411       .  A
C2197      C2199   1.411       .  A
C2197      C2198   1.411       .  A
C2198      C2206   1.402       .  A
C2199      C2208   1.402       .  A
C2199      C2200   1.403       .  A
C2200      C2201   1.399       .  A
C2200      H2211   1.085       .  S
C2201      C2202   1.404       .  A
C2201      H2212   1.082   1_565  S
C2202      C2203   1.402   1_565  A
C2203      C2204   1.407   1_545  A
C2203      H2213   1.084       .  S
C2204      C2205   1.406       .  A
C2205      H2214   1.085       .  S
C2206      C2207   1.407       .  A
C2206      H2215   1.083       .  S
C2207      C2208   1.407       .  A
C2208      H2216   1.085       .  S
C2217      C2218   1.397       .  A
C2217      C2222   1.402       .  A
C2217      H2233   1.086       .  S
C2218      C2219   1.404       .  A
C2218      H2234   1.081       .  S
C2219      C2229   1.400       .  A
C2219      C2220   1.409       .  A
C2220      C2226   1.413       .  A
C2220      C2221   1.414       .  A
C2221      C2223   1.410       .  A
C2221      C2222   1.412       .  A
C2222      C2230   1.402       .  A
C2223      C2232   1.408       .  A
C2223      C2224   1.406       .  A
C2224      C2225   1.402       .  A
C2224      H2235   1.081       .  S
C2225      C2226   1.404       .  A
C2225      H2236   1.085       .  S
C2226      C2227   1.409       .  A
C2227      C2228   1.408       .  A
C2227      H2237   1.085       .  S
C2228      C2229   1.409       .  A
C2229      H2238   1.083       .  S
C2230      C2231   1.406       .  A
C2230      H2239   1.086       .  S
C2231      C2232   1.411       .  A
C2232      H2240   1.083       .  S
C2241      C2242   1.397       .  A
C2241      C2246   1.403       .  A
C2241      H2257   1.084       .  S
C2242      C2243   1.403       .  A
C2242      H2258   1.083       .  S
C2243      C2253   1.398       .  A
C2243      C2244   1.411       .  A
C2244      C2250   1.412       .  A
C2244      C2245   1.408       .  A
C2245      C2247   1.411       .  A
C2245      C2246   1.412       .  A
C2246      C2254   1.400       .  A
C2247      C2256   1.400       .  A
C2247      C2248   1.403       .  A
C2248      C2249   1.397       .  A
C2248      H2259   1.083       .  S
C2249      C2250   1.402       .  A
C2249      H2260   1.084       .  S
C2250      C2251   1.399       .  A
C2251      C2252   1.405       .  A
C2251      H2261   1.085       .  S
C2252      C2253   1.406       .  A
C2253      H2262   1.084       .  S
C2254      C2255   1.406       .  A
C2254      H2263   1.085       .  S
C2255      C2256   1.405       .  A
C2256      H2264   1.084       .  S
C2265      C2266   1.402       .  A
C2265      C2270   1.404       .  A
C2265      H2281   1.084       .  S
C2266      C2267   1.405       .  A
C2266      H2282   1.083       .  S
C2267      C2277   1.407       .  A
C2267      C2268   1.411       .  A
C2268      C2274   1.411       .  A
C2268      C2269   1.411       .  A
C2269      C2271   1.409       .  A
C2269      C2270   1.413       .  A
C2270      C2278   1.409       .  A
C2271      C2280   1.396       .  A
C2271      C2272   1.403       .  A
C2272      C2273   1.395       .  A
C2272      H2283   1.083       .  S
C2273      C2274   1.402       .  A
C2273      H2284   1.084       .  S
C2274      C2275   1.397       .  A
C2275      C2276   1.406       .  A
C2275      H2285   1.085       .  S
C2276      C2277   1.408       .  A
C2277      H2286   1.084       .  S
C2278      C2279   1.408       .  A
C2278      H2287   1.084       .  S
C2279      C2280   1.409       .  A
C2280      H2288   1.084       .  S
C2289      C2290   1.402       .  A
C2289      C2294   1.405       .  A
C2289      H2305   1.082       .  S
C2290      C2291   1.404       .  A
C2290      H2306   1.084       .  S
C2291      C2301   1.407       .  A
C2291      C2292   1.412       .  A
C2292      C2298   1.410       .  A
C2292      C2293   1.411       .  A
C2293      C2295   1.412   1_554  A
C2293      C2294   1.411       .  A
C2294      C2302   1.406   1_554  A
C2295      C2304   1.399       .  A
C2295      C2296   1.402       .  A
C2296      C2297   1.396       .  A
C2296      H2307   1.085       .  S
C2297      C2298   1.403   1_556  A
C2297      H2308   1.083       .  S
C2298      C2299   1.398       .  A
C2299      C2300   1.406       .  A
C2299      H2309   1.084       .  S
C2300      C2301   1.408       .  A
C2301      H2310   1.085       .  S
C2302      C2303   1.410       .  A
C2302      H2311   1.083   1_556  S
C2303      C2304   1.404       .  A
C2304      H2312   1.085       .  S
C2313      C2314   1.396       .  A
C2313      C2318   1.403       .  A
C2313      H2329   1.083       .  S
C2314      C2315   1.402       .  A
C2314      H2330   1.084       .  S
C2315      C2325   1.399       .  A
C2315      C2316   1.412       .  A
C2316      C2322   1.411       .  A
C2316      C2317   1.410       .  A
C2317      C2319   1.413       .  A
C2317      C2318   1.410       .  A
C2318      C2326   1.397       .  A
C2319      C2328   1.406       .  A
C2319      C2320   1.404       .  A
C2320      C2321   1.400       .  A
C2320      H2331   1.084       .  S
C2321      C2322   1.404       .  A
C2321      H2332   1.083       .  S
C2322      C2323   1.404       .  A
C2323      C2324   1.406       .  A
C2323      H2333   1.084       .  S
C2324      C2325   1.404       .  A
C2325      H2334   1.085       .  S
C2326      C2327   1.407       .  A
C2326      H2335   1.084       .  S
C2327      C2328   1.407       .  A
C2328      H2336   1.084       .  S
C2337      C2338   1.400       .  A
C2337      C2342   1.404       .  A
C2337      H2353   1.083   1_545  S
C2338      C2339   1.404       .  A
C2338      H2354   1.084       .  S
C2339      C2349   1.405       .  A
C2339      C2340   1.411       .  A
C2340      C2346   1.411       .  A
C2340      C2341   1.414       .  A
C2341      C2343   1.411   1_556  A
C2341      C2342   1.411       .  A
C2342      C2350   1.406   1_546  A
C2343      C2352   1.404       .  A
C2343      C2344   1.403       .  A
C2344      C2345   1.399       .  A
C2344      H2355   1.084       .  S
C2345      C2346   1.404   1_554  A
C2345      H2356   1.083       .  S
C2346      C2347   1.404       .  A
C2347      C2348   1.408       .  A
C2347      H2357   1.084       .  S
C2348      C2349   1.409       .  A
C2349      H2358   1.085       .  S
C2350      C2351   1.409   1_565  A
C2350      H2359   1.084   1_554  S
C2351      C2352   1.407       .  A
C2352      H2360   1.085       .  S
C2361      C2362   1.394       .  A
C2361      C2366   1.402       .  A
C2361      H2377   1.081       .  S
C2362      C2363   1.402       .  A
C2362      H2378   1.086       .  S
C2363      C2373   1.393       .  A
C2363      C2364   1.409       .  A
C2364      C2370   1.414       .  A
C2364      C2365   1.410       .  A
C2365      C2367   1.411       .  A
C2365      C2366   1.412       .  A
C2366      C2374   1.397       .  A
C2367      C2376   1.404       .  A
C2367      C2368   1.404       .  A
C2368      C2369   1.401       .  A
C2368      H2379   1.085       .  S
C2369      C2370   1.404       .  A
C2369      H2380   1.082       .  S
C2370      C2371   1.408       .  A
C2371      C2372   1.406       .  A
C2371      H2381   1.083       .  S
C2372      C2373   1.408       .  A
C2373      H2382   1.086       .  S
C2374      C2375   1.404       .  A
C2374      H2383   1.083       .  S
C2375      C2376   1.406       .  A
C2376      H2384   1.085       .  S
C2385      C2386   1.396   1_545  A
C2385      C2390   1.402       .  A
C2385      H2401   1.082       .  S
C2386      C2387   1.402       .  A
C2386      H2402   1.085       .  S
C2387      C2397   1.397       .  A
C2387      C2388   1.411       .  A
C2388      C2394   1.413       .  A
C2388      C2389   1.408   1_565  A
C2389      C2391   1.411       .  A
C2389      C2390   1.413       .  A
C2390      C2398   1.400       .  A
C2391      C2400   1.399       .  A
C2391      C2392   1.403       .  A
C2392      C2393   1.399   1_545  A
C2392      H2403   1.085       .  S
C2393      C2394   1.404       .  A
C2393      H2404   1.082       .  S
C2394      C2395   1.402       .  A
C2395      C2396   1.405       .  A
C2395      H2405   1.084       .  S
C2396      C2397   1.404       .  A
C2397      H2406   1.086       .  S
C2398      C2399   1.403       .  A
C2398      H2407   1.084       .  S
C2399      C2400   1.407       .  A
C2400      H2408   1.085       .  S
C2409      C2410   1.395       .  A
C2409      C2414   1.402       .  A
C2409      H2425   1.083       .  S
C2410      C2411   1.401       .  A
C2410      H2426   1.085       .  S
C2411      C2421   1.396       .  A
C2411      C2412   1.412       .  A
C2412      C2418   1.412       .  A
C2412      C2413   1.409       .  A
C2413      C2415   1.412       .  A
C2413      C2414   1.411       .  A
C2414      C2422   1.396       .  A
C2415      C2424   1.404       .  A
C2415      C2416   1.404       .  A
C2416      C2417   1.401       .  A
C2416      H2427   1.085       .  S
C2417      C2418   1.404       .  A
C2417      H2428   1.082       .  S
C2418      C2419   1.404       .  A
C2419      C2420   1.405       .  A
C2419      H2429   1.084       .  S
C2420      C2421   1.401       .  A
C2421      H2430   1.086       .  S
C2422      C2423   1.403       .  A
C2422      H2431   1.084       .  S
C2423      C2424   1.406       .  A
C2424      H2432   1.085       .  S
C2433      C2434   1.401       .  A
C2433      C2438   1.405       .  A
C2433      H2449   1.082       .  S
C2434      C2435   1.404       .  A
C2434      H2450   1.085       .  S
C2435      C2445   1.406       .  A
C2435      C2436   1.412       .  A
C2436      C2442   1.410       .  A
C2436      C2437   1.412       .  A
C2437      C2439   1.411       .  A
C2437      C2438   1.412       .  A
C2438      C2446   1.407       .  A
C2439      C2448   1.399       .  A
C2439      C2440   1.402       .  A
C2440      C2441   1.397       .  A
C2440      H2451   1.085       .  S
C2441      C2442   1.403       .  A
C2441      H2452   1.082       .  S
C2442      C2443   1.400       .  A
C2443      C2444   1.408       .  A
C2443      H2453   1.083       .  S
C2444      C2445   1.408       .  A
C2445      H2454   1.085       .  S
C2446      C2447   1.408       .  A
C2446      H2455   1.083       .  S
C2447      C2448   1.407       .  A
C2448      H2456   1.085       .  S
C2457      C2458   1.397       .  A
C2457      C2462   1.403       .  A
C2457      H2473   1.083       .  S
C2458      C2459   1.402       .  A
C2458      H2474   1.085       .  S
C2459      C2469   1.399       .  A
C2459      C2460   1.412       .  A
C2460      C2466   1.411       .  A
C2460      C2461   1.410       .  A
C2461      C2463   1.412       .  A
C2461      C2462   1.410       .  A
C2462      C2470   1.399       .  A
C2463      C2472   1.403       .  A
C2463      C2464   1.403       .  A
C2464      C2465   1.399       .  A
C2464      H2475   1.084       .  S
C2465      C2466   1.404       .  A
C2465      H2476   1.083       .  S
C2466      C2467   1.402       .  A
C2467      C2468   1.407       .  A
C2467      H2477   1.084       .  S
C2468      C2469   1.405       .  A
C2469      H2478   1.085       .  S
C2470      C2471   1.406       .  A
C2470      H2479   1.084       .  S
C2471      C2472   1.406       .  A
C2472      H2480   1.085       .  S
C2481      C2482   1.401       .  A
C2481      C2486   1.404       .  A
C2481      H2497   1.083   1_545  S
C2482      C2483   1.404       .  A
C2482      H2498   1.084       .  S
C2483      C2493   1.406       .  A
C2483      C2484   1.411       .  A
C2484      C2490   1.411       .  A
C2484      C2485   1.415       .  A
C2485      C2487   1.411       .  A
C2485      C2486   1.412       .  A
C2486      C2494   1.407   1_545  A
C2487      C2496   1.405       .  A
C2487      C2488   1.404       .  A
C2488      C2489   1.400       .  A
C2488      H2499   1.085       .  S
C2489      C2490   1.404       .  A
C2489      H2500   1.082       .  S
C2490      C2491   1.406       .  A
C2491      C2492   1.409       .  A
C2491      H2501   1.083       .  S
C2492      C2493   1.410       .  A
C2493      H2502   1.085       .  S
C2494      C2495   1.409   1_565  A
C2494      H2503   1.084       .  S
C2495      C2496   1.408       .  A
C2496      H2504   1.085       .  S
C2505      C2506   1.393       .  A
C2505      C2510   1.400       .  A
C2505      H2521   1.084       .  S
C2506      C2507   1.402       .  A
C2506      H2522   1.083       .  S
C2507      C2517   1.391       .  A
C2507      C2508   1.408       .  A
C2508      C2514   1.414       .  A
C2508      C2509   1.410       .  A
C2509      C2511   1.410       .  A
C2509      C2510   1.413       .  A
C2510      C2518   1.396       .  A
C2511      C2520   1.405       .  A
C2511      C2512   1.406       .  A
C2512      C2513   1.403       .  A
C2512      H2523   1.083       .  S
C2513      C2514   1.405       .  A
C2513      H2524   1.084       .  S
C2514      C2515   1.410       .  A
C2515      C2516   1.407       .  A
C2515      H2525   1.084       .  S
C2516      C2517   1.407       .  A
C2517      H2526   1.084       .  S
C2518      C2519   1.400       .  A
C2518      H2527   1.085       .  S
C2519      C2520   1.408       .  A
C2520      H2528   1.084       .  S
C2529      C2530   1.394       .  A
C2529      C2534   1.401       .  A
C2529      H2545   1.085       .  S
C2530      C2531   1.402       .  A
C2530      H2546   1.082       .  S
C2531      C2541   1.396       .  A
C2531      C2532   1.410       .  A
C2532      C2538   1.412       .  A
C2532      C2533   1.411       .  A
C2533      C2535   1.411       .  A
C2533      C2534   1.411       .  A
C2534      C2542   1.396       .  A
C2535      C2544   1.407   1_565  A
C2535      C2536   1.405   1_565  A
C2536      C2537   1.402   1_545  A
C2536      H2547   1.082       .  S
C2537      C2538   1.405       .  A
C2537      H2548   1.084       .  S
C2538      C2539   1.407       .  A
C2539      C2540   1.409       .  A
C2539      H2549   1.085       .  S
C2540      C2541   1.405       .  A
C2541      H2550   1.084       .  S
C2542      C2543   1.404   1_565  A
C2542      H2551   1.085       .  S
C2543      C2544   1.410       .  A
C2544      H2552   1.083       .  S
C2553      C2554   1.400       .  A
C2553      C2558   1.404       .  A
C2553      H2569   1.084       .  S
C2554      C2555   1.404       .  A
C2554      H2570   1.083       .  S
C2555      C2565   1.407       .  A
C2555      C2556   1.413       .  A
C2556      C2562   1.410       .  A
C2556      C2557   1.415       .  A
C2557      C2559   1.413       .  A
C2557      C2558   1.410       .  A
C2558      C2566   1.404       .  A
C2559      C2568   1.408       .  A
C2559      C2560   1.404       .  A
C2560      C2561   1.400       .  A
C2560      H2571   1.083       .  S
C2561      C2562   1.404       .  A
C2561      H2572   1.084       .  S
C2562      C2563   1.404       .  A
C2563      C2564   1.408       .  A
C2563      H2573   1.085       .  S
C2564      C2565   1.407       .  A
C2565      H2574   1.084       .  S
C2566      C2567   1.410       .  A
C2566      H2575   1.084       .  S
C2567      C2568   1.409       .  A
C2568      H2576   1.084       .  S
C2577      C2578   1.399       .  A
C2577      C2582   1.403       .  A
C2577      H2593   1.084       .  S
C2578      C2579   1.404       .  A
C2578      H2594   1.083       .  S
C2579      C2589   1.403       .  A
C2579      C2580   1.411       .  A
C2580      C2586   1.412       .  A
C2580      C2581   1.411       .  A
C2581      C2583   1.411       .  A
C2581      C2582   1.412       .  A
C2582      C2590   1.403       .  A
C2583      C2592   1.401       .  A
C2583      C2584   1.404       .  A
C2584      C2585   1.398       .  A
C2584      H2595   1.083       .  S
C2585      C2586   1.403       .  A
C2585      H2596   1.084       .  S
C2586      C2587   1.402       .  A
C2587      C2588   1.406       .  A
C2587      H2597   1.085       .  S
C2588      C2589   1.406       .  A
C2589      H2598   1.084       .  S
C2590      C2591   1.406       .  A
C2590      H2599   1.085       .  S
C2591      C2592   1.408       .  A
C2592      H2600   1.084       .  S
C2601      C2602   1.394       .  A
C2601      C2606   1.402       .  A
C2601      H2617   1.084       .  S
C2602      C2603   1.401       .  A
C2602      H2618   1.083       .  S
C2603      C2613   1.395       .  A
C2603      C2604   1.412       .  A
C2604      C2610   1.411       .  A
C2604      C2605   1.406       .  A
C2605      C2607   1.412       .  A
C2605      C2606   1.409       .  A
C2606      C2614   1.392       .  A
C2607      C2616   1.402       .  A
C2607      C2608   1.403       .  A
C2608      C2609   1.399       .  A
C2608      H2619   1.083       .  S
C2609      C2610   1.404       .  A
C2609      H2620   1.084       .  S
C2610      C2611   1.400       .  A
C2611      C2612   1.405       .  A
C2611      H2621   1.085       .  S
C2612      C2613   1.401       .  A
C2613      H2622   1.085       .  S
C2614      C2615   1.406       .  A
C2614      H2623   1.085       .  S
C2615      C2616   1.405       .  A
C2616      H2624   1.084       .  S
C2625      C2626   1.397   1_545  A
C2625      C2630   1.402       .  A
C2625      H2641   1.086       .  S
C2626      C2627   1.403       .  A
C2626      H2642   1.082       .  S
C2627      C2637   1.399   1_556  A
C2627      C2628   1.411   1_556  A
C2628      C2634   1.412       .  A
C2628      C2629   1.408   1_564  A
C2629      C2631   1.411   1_556  A
C2629      C2630   1.412       .  A
C2630      C2638   1.399       .  A
C2631      C2640   1.400   1_554  A
C2631      C2632   1.404       .  A
C2632      C2633   1.397   1_545  A
C2632      H2643   1.082       .  S
C2633      C2634   1.402       .  A
C2633      H2644   1.086       .  S
C2634      C2635   1.399       .  A
C2635      C2636   1.404       .  A
C2635      H2645   1.086       .  S
C2636      C2637   1.405       .  A
C2637      H2646   1.083   1_554  S
C2638      C2639   1.404       .  A
C2638      H2647   1.086       .  S
C2639      C2640   1.405       .  A
C2640      H2648   1.083       .  S
C2649      C2650   1.402       .  A
C2649      C2654   1.404       .  A
C2649      H2665   1.084       .  S
C2650      C2651   1.405       .  A
C2650      H2666   1.082       .  S
C2651      C2661   1.407       .  A
C2651      C2652   1.412       .  A
C2652      C2658   1.411       .  A
C2652      C2653   1.411       .  A
C2653      C2655   1.412       .  A
C2653      C2654   1.412       .  A
C2654      C2662   1.405       .  A
C2655      C2664   1.400       .  A
C2655      C2656   1.402       .  A
C2656      C2657   1.396       .  A
C2656      H2667   1.083       .  S
C2657      C2658   1.402       .  A
C2657      H2668   1.085       .  S
C2658      C2659   1.398       .  A
C2659      C2660   1.406       .  A
C2659      H2669   1.085       .  S
C2660      C2661   1.410       .  A
C2661      H2670   1.083       .  S
C2662      C2663   1.405       .  A
C2662      H2671   1.085       .  S
C2663      C2664   1.401       .  A
C2664      H2672   1.084       .  S
C2673      C2674   1.399       .  A
C2673      C2678   1.403       .  A
C2673      H2689   1.085       .  S
C2674      C2675   1.404   1_556  A
C2674      H2690   1.082       .  S
C2675      C2685   1.406       .  A
C2675      C2676   1.412       .  A
C2676      C2682   1.410       .  A
C2676      C2677   1.414       .  A
C2677      C2679   1.412       .  A
C2677      C2678   1.411   1_554  A
C2678      C2686   1.402       .  A
C2679      C2688   1.407   1_564  A
C2679      C2680   1.404   1_565  A
C2680      C2681   1.401   1_545  A
C2680      H2691   1.082       .  S
C2681      C2682   1.404       .  A
C2681      H2692   1.085       .  S
C2682      C2683   1.404       .  A
C2683      C2684   1.410       .  A
C2683      H2693   1.085       .  S
C2684      C2685   1.409       .  A
C2685      H2694   1.083       .  S
C2686      C2687   1.406   1_565  A
C2686      H2695   1.086       .  S
C2687      C2688   1.407       .  A
C2688      H2696   1.083       .  S
C2697      C2698   1.398       .  A
C2697      C2702   1.404   1_554  A
C2697      H2713   1.082       .  S
C2698      C2699   1.403       .  A
C2698      H2714   1.085       .  S
C2699      C2709   1.402       .  A
C2699      C2700   1.411   1_554  A
C2700      C2706   1.411       .  A
C2700      C2701   1.414       .  A
C2701      C2703   1.412       .  A
C2701      C2702   1.410       .  A
C2702      C2710   1.402       .  A
C2703      C2712   1.407       .  A
C2703      C2704   1.404       .  A
C2704      C2705   1.401       .  A
C2704      H2715   1.085       .  S
C2705      C2706   1.405       .  A
C2705      H2716   1.083       .  S
C2706      C2707   1.407       .  A
C2707      C2708   1.409   1_556  A
C2707      H2717   1.083       .  S
C2708      C2709   1.409       .  A
C2709      H2718   1.085       .  S
C2710      C2711   1.408       .  A
C2710      H2719   1.084       .  S
C2711      C2712   1.408       .  A
C2712      H2720   1.085       .  S
C2721      C2722   1.400       .  A
C2721      C2726   1.404       .  A
C2721      H2737   1.084       .  S
C2722      C2723   1.404       .  A
C2722      H2738   1.083       .  S
C2723      C2733   1.406       .  A
C2723      C2724   1.412       .  A
C2724      C2730   1.411       .  A
C2724      C2725   1.413       .  A
C2725      C2727   1.411       .  A
C2725      C2726   1.411       .  A
C2726      C2734   1.406       .  A
C2727      C2736   1.403       .  A
C2727      C2728   1.404       .  A
C2728      C2729   1.398       .  A
C2728      H2739   1.083       .  S
C2729      C2730   1.403       .  A
C2729      H2740   1.084       .  S
C2730      C2731   1.402       .  A
C2731      C2732   1.407       .  A
C2731      H2741   1.085       .  S
C2732      C2733   1.408       .  A
C2733      H2742   1.084       .  S
C2734      C2735   1.409       .  A
C2734      H2743   1.084       .  S
C2735      C2736   1.408       .  A
C2736      H2744   1.084       .  S
C2745      C2746   1.400       .  A
C2745      C2750   1.404       .  A
C2745      H2761   1.084       .  S
C2746      C2747   1.404       .  A
C2746      H2762   1.083       .  S
C2747      C2757   1.404       .  A
C2747      C2748   1.411       .  A
C2748      C2754   1.411       .  A
C2748      C2749   1.410       .  A
C2749      C2751   1.410       .  A
C2749      C2750   1.412       .  A
C2750      C2758   1.405       .  A
C2751      C2760   1.396       .  A
C2751      C2752   1.403       .  A
C2752      C2753   1.395       .  A
C2752      H2763   1.083       .  S
C2753      C2754   1.402       .  A
C2753      H2764   1.084       .  S
C2754      C2755   1.396       .  A
C2755      C2756   1.406       .  A
C2755      H2765   1.085       .  S
C2756      C2757   1.407       .  A
C2757      H2766   1.084       .  S
C2758      C2759   1.407       .  A
C2758      H2767   1.084       .  S
C2759      C2760   1.408       .  A
C2760      H2768   1.084       .  S
C2769      C2770   1.398   1_565  A
C2769      C2774   1.403       .  A
C2769      H2785   1.084       .  S
C2770      C2771   1.404       .  A
C2770      H2786   1.083       .  S
C2771      C2781   1.398       .  A
C2771      C2772   1.409       .  A
C2772      C2778   1.414       .  A
C2772      C2773   1.409   1_545  A
C2773      C2775   1.409       .  A
C2773      C2774   1.413       .  A
C2774      C2782   1.403       .  A
C2775      C2784   1.397       .  A
C2775      C2776   1.403   1_565  A
C2776      C2777   1.397       .  A
C2776      H2787   1.083       .  S
C2777      C2778   1.402       .  A
C2777      H2788   1.084       .  S
C2778      C2779   1.401       .  A
C2779      C2780   1.403       .  A
C2779      H2789   1.085       .  S
C2780      C2781   1.409       .  A
C2781      H2790   1.084       .  S
C2782      C2783   1.405       .  A
C2782      H2791   1.085       .  S
C2783      C2784   1.408       .  A
C2784      H2792   1.084       .  S
C2793      C2794   1.399       .  A
C2793      C2798   1.403       .  A
C2793      H2809   1.085       .  S
C2794      C2795   1.404       .  A
C2794      H2810   1.082       .  S
C2795      C2805   1.404       .  A
C2795      C2796   1.411       .  A
C2796      C2802   1.412       .  A
C2796      C2797   1.414       .  A
C2797      C2799   1.412       .  A
C2797      C2798   1.411       .  A
C2798      C2806   1.402       .  A
C2799      C2808   1.406       .  A
C2799      C2800   1.404       .  A
C2800      C2801   1.401       .  A
C2800      H2811   1.082       .  S
C2801      C2802   1.404       .  A
C2801      H2812   1.085       .  S
C2802      C2803   1.406       .  A
C2803      C2804   1.408       .  A
C2803      H2813   1.085       .  S
C2804      C2805   1.407       .  A
C2805      H2814   1.084       .  S
C2806      C2807   1.409       .  A
C2806      H2815   1.085       .  S
C2807      C2808   1.409       .  A
C2808      H2816   1.083       .  S
C2817      C2818   1.395       .  A
C2817      C2822   1.402       .  A
C2817      H2833   1.085       .  S
C2818      C2819   1.402       .  A
C2818      H2834   1.083       .  S
C2819      C2829   1.398       .  A
C2819      C2820   1.411       .  A
C2820      C2826   1.412       .  A
C2820      C2821   1.412       .  A
C2821      C2823   1.412       .  A
C2821      C2822   1.411       .  A
C2822      C2830   1.397       .  A
C2823      C2832   1.408       .  A
C2823      C2824   1.405       .  A
C2824      C2825   1.402       .  A
C2824      H2835   1.083       .  S
C2825      C2826   1.405       .  A
C2825      H2836   1.084       .  S
C2826      C2827   1.407       .  A
C2827      C2828   1.409       .  A
C2827      H2837   1.084       .  S
C2828      C2829   1.406       .  A
C2829      H2838   1.084       .  S
C2830      C2831   1.404       .  A
C2830      H2839   1.085       .  S
C2831      C2832   1.409       .  A
C2832      H2840   1.083       .  S
C2841      C2842   1.401       .  A
C2841      C2846   1.405       .  A
C2841      H2857   1.083   1_545  S
C2842      C2843   1.404       .  A
C2842      H2858   1.084       .  S
C2843      C2853   1.408       .  A
C2843      C2844   1.412       .  A
C2844      C2850   1.410       .  A
C2844      C2845   1.416       .  A
C2845      C2847   1.412       .  A
C2845      C2846   1.411       .  A
C2846      C2854   1.407       .  A
C2847      C2856   1.406       .  A
C2847      C2848   1.404       .  A
C2848      C2849   1.400       .  A
C2848      H2859   1.084       .  S
C2849      C2850   1.404       .  A
C2849      H2860   1.083       .  S
C2850      C2851   1.404       .  A
C2851      C2852   1.411       .  A
C2851      H2861   1.084       .  S
C2852      C2853   1.408       .  A
C2853      H2862   1.085       .  S
C2854      C2855   1.410       .  A
C2854      H2863   1.083   1_545  S
C2855      C2856   1.409       .  A
C2856      H2864   1.085       .  S
C2865      C2866   1.399       .  A
C2865      C2870   1.403       .  A
C2865      H2881   1.084       .  S
C2866      C2867   1.403       .  A
C2866      H2882   1.083       .  S
C2867      C2877   1.403       .  A
C2867      C2868   1.412       .  A
C2868      C2874   1.410       .  A
C2868      C2869   1.410       .  A
C2869      C2871   1.410       .  A
C2869      C2870   1.412       .  A
C2870      C2878   1.403       .  A
C2871      C2880   1.398       .  A
C2871      C2872   1.403       .  A
C2872      C2873   1.397       .  A
C2872      H2883   1.083       .  S
C2873      C2874   1.403       .  A
C2873      H2884   1.084       .  S
C2874      C2875   1.398       .  A
C2875      C2876   1.409       .  A
C2875      H2885   1.085       .  S
C2876      C2877   1.405       .  A
C2877      H2886   1.084       .  S
C2878      C2879   1.405       .  A
C2878      H2887   1.085       .  S
C2879      C2880   1.409       .  A
C2880      H2888   1.084       .  S
C2889      C2890   1.398   1_565  A
C2889      C2894   1.403       .  A
C2889      H2905   1.085       .  S
C2890      C2891   1.403       .  A
C2890      H2906   1.082       .  S
C2891      C2901   1.403       .  A
C2891      C2892   1.413       .  A
C2892      C2898   1.410   1_655  A
C2892      C2893   1.409   1_645  A
C2893      C2895   1.413       .  A
C2893      C2894   1.410   1_455  A
C2894      C2902   1.399       .  A
C2895      C2904   1.402       .  A
C2895      C2896   1.403       .  A
C2896      C2897   1.397   1_565  A
C2896      H2907   1.082       .  S
C2897      C2898   1.403       .  A
C2897      H2908   1.086       .  S
C2898      C2899   1.397       .  A
C2899      C2900   1.406   1_455  A
C2899      H2909   1.086       .  S
C2900      C2901   1.405       .  A
C2901      H2910   1.083       .  S
C2902      C2903   1.407   1_655  A
C2902      H2911   1.086       .  S
C2903      C2904   1.404       .  A
C2904      H2912   1.083       .  S
C2913      C2914   1.399       .  A
C2913      C2918   1.403       .  A
C2913      H2929   1.084       .  S
C2914      C2915   1.404       .  A
C2914      H2930   1.083       .  S
C2915      C2925   1.403       .  A
C2915      C2916   1.411       .  A
C2916      C2922   1.412       .  A
C2916      C2917   1.413       .  A
C2917      C2919   1.412       .  A
C2917      C2918   1.412       .  A
C2918      C2926   1.403       .  A
C2919      C2928   1.406       .  A
C2919      C2920   1.404       .  A
C2920      C2921   1.401       .  A
C2920      H2931   1.083       .  S
C2921      C2922   1.404       .  A
C2921      H2932   1.085       .  S
C2922      C2923   1.406       .  A
C2923      C2924   1.406       .  A
C2923      H2933   1.085       .  S
C2924      C2925   1.406       .  A
C2925      H2934   1.084       .  S
C2926      C2927   1.405       .  A
C2926      H2935   1.085       .  S
C2927      C2928   1.406       .  A
C2928      H2936   1.084       .  S
C2937      C2938   1.401       .  A
C2937      C2942   1.404       .  A
C2937      H2953   1.082       .  S
C2938      C2939   1.404       .  A
C2938      H2954   1.085       .  S
C2939      C2949   1.406       .  A
C2939      C2940   1.411       .  A
C2940      C2946   1.412       .  A
C2940      C2941   1.415       .  A
C2941      C2943   1.410       .  A
C2941      C2942   1.412       .  A
C2942      C2950   1.408       .  A
C2943      C2952   1.404       .  A
C2943      C2944   1.404       .  A
C2944      C2945   1.400       .  A
C2944      H2955   1.084       .  S
C2945      C2946   1.404       .  A
C2945      H2956   1.083       .  S
C2946      C2947   1.407       .  A
C2947      C2948   1.407       .  A
C2947      H2957   1.084       .  S
C2948      C2949   1.408       .  A
C2949      H2958   1.085       .  S
C2950      C2951   1.409       .  A
C2950      H2959   1.083       .  S
C2951      C2952   1.410       .  A
C2952      H2960   1.084       .  S
C2961      C2962   1.398       .  A
C2961      C2966   1.403       .  A
C2961      H2977   1.083       .  S
C2962      C2963   1.403       .  A
C2962      H2978   1.084       .  S
C2963      C2973   1.401       .  A
C2963      C2964   1.412       .  A
C2964      C2970   1.411       .  A
C2964      C2965   1.412       .  A
C2965      C2967   1.412       .  A
C2965      C2966   1.411       .  A
C2966      C2974   1.403       .  A
C2967      C2976   1.403       .  A
C2967      C2968   1.404       .  A
C2968      C2969   1.399       .  A
C2968      H2979   1.084       .  S
C2969      C2970   1.404       .  A
C2969      H2980   1.083       .  S
C2970      C2971   1.403       .  A
C2971      C2972   1.407       .  A
C2971      H2981   1.084       .  S
C2972      C2973   1.406       .  A
C2973      H2982   1.085       .  S
C2974      C2975   1.407       .  A
C2974      H2983   1.084       .  S
C2975      C2976   1.407       .  A
C2976      H2984   1.085       .  S
C2985      C2986   1.400       .  A
C2985      C2990   1.404       .  A
C2985      H3001   1.083   1_545  S
C2986      C2987   1.404       .  A
C2986      H3002   1.085       .  S
C2987      C2997   1.405       .  A
C2987      C2988   1.411       .  A
C2988      C2994   1.411       .  A
C2988      C2989   1.415       .  A
C2989      C2991   1.411       .  A
C2989      C2990   1.412       .  A
C2990      C2998   1.406       .  A
C2991      C3000   1.406       .  A
C2991      C2992   1.404       .  A
C2992      C2993   1.401       .  A
C2992      H3003   1.085       .  S
C2993      C2994   1.405       .  A
C2993      H3004   1.082       .  S
C2994      C2995   1.407       .  A
C2995      C2996   1.411       .  A
C2995      H3005   1.083       .  S
C2996      C2997   1.409       .  A
C2997      H3006   1.085       .  S
C2998      C2999   1.407       .  A
C2998      H3007   1.084   1_545  S
C2999      C3000   1.409       .  A
C3000      H3008   1.085       .  S
