geometry optimzed in LAMMPS
_audit_creation_date              2020-12-01 
_audit_creation_method            'lammps2cif' 
_symmetry_space_group_name_H-M    'P1' 
_symmetry_Int_Tables_number       1 
_symmetry_cell_setting            triclinic 
loop_ 
_symmetry_equiv_pos_as_xyz 
  x,y,z 
_cell_length_a                    36.35251269 
_cell_length_b                    42.404761193714684 
_cell_length_c                    43.68680544441797 
_cell_angle_alpha                 90.06114961126517 
_cell_angle_beta                  90.0405332855157 
_cell_angle_gamma                 90.33099144494301 
loop_ 
_atom_site_label 
_atom_site_type_symbol 
_atom_site_fract_x 
_atom_site_fract_y 
_atom_site_fract_z 
_atom_site_charge 
Fe1        Fe  0.85104573  0.46622607  0.37009602     1.65800
Fe2        Fe  0.86055510  0.39935188  0.40955595     1.73200
Fe3        Fe  0.78015743  0.41516334  0.37389458     1.54400
O4          O  0.75897145  0.45818946  0.38713575    -0.82600
O5          O  0.83689356  0.35706835  0.39349096    -0.80900
O6          O  0.80133644  0.49014723  0.36781237    -0.85100
O7          O  0.84392262  0.45188100  0.32552099    -0.80000
O8          O  0.76963139  0.39828633  0.41822548    -0.81800
O9          O  0.90111436  0.39780151  0.37654319    -0.84500
C10         C  0.81548346  0.43981665  0.31291028     0.96300
C11         C  0.76901586  0.48503160  0.37758946     1.03700
O12         O  0.83026357  0.42663284  0.38434106    -1.13500
O13         O  0.88558875  0.43765440  0.43196739    -0.75900
O14         O  0.85714584  0.48060277  0.41496471    -0.79400
O15         O  0.78771784  0.42991283  0.32831370    -0.80100
C16         C  0.87428131  0.46583799  0.43588002     0.95200
O17         O  0.90489774  0.44931096  0.36941999    -0.78000
O18         O  0.82288223  0.39979067  0.44354672    -0.83200
C19         C  0.81134255  0.34997552  0.37468980     0.97800
C20         C  0.78860533  0.39505322  0.44273138     1.03700
O21         O  0.79471562  0.37103225  0.35967611    -0.78900
C22         C  0.91931000  0.42207294  0.36849901     1.02000
Fe23       Fe  0.85311585  0.03162631  0.62080577     1.65800
Fe24       Fe  0.85945559  0.09677573  0.57753810     1.73200
Fe25       Fe  0.78208591  0.08228417  0.61856088     1.54400
O26         O  0.75951375  0.03869409  0.60767861    -0.82600
O27         O  0.83619261  0.13951713  0.59242622    -0.80900
O28         O  0.80372691  0.00677999  0.62368983    -0.85100
O29         O  0.84726666  0.04610348  0.66570584    -0.80000
O30         O  0.76831035  0.09807200  0.57465437    -0.81800
O31         O  0.90281290  0.10081982  0.60791031    -0.84500
C32         C  0.81899552  0.05742565  0.67889506     0.96300
C33         C  0.77075338  0.01158688  0.61539546     1.03700
O34         O  0.83137378  0.07044802  0.60590442    -1.13500
O35         O  0.88435320  0.05825351  0.55593143    -0.75900
O36         O  0.85856663  0.01561398  0.57619482    -0.79400
O37         O  0.79173139  0.06857262  0.66397735    -0.80100
C38         C  0.87477160  0.02933459  0.55408268     0.95200
O39         O  0.90629135  0.05034616  0.62068171    -0.78000
O40         O  0.81879289  0.09373538  0.54574524    -0.83200
C41         C  0.81277595  0.14737813  0.61269618     0.97800
C42         C  0.78484561  0.09939023  0.54888495     1.03700
O43         O  0.79880093  0.12698378  0.63048009    -0.78900
C44         C  0.92094843  0.07761531  0.61824381     1.02000
Fe45       Fe  0.14489248  0.46714757  0.36907519     1.65800
Fe46       Fe  0.13799876  0.40125511  0.41085701     1.73200
Fe47       Fe  0.21624385  0.41704424  0.37205910     1.54400
O48         O  0.20799929  0.43173104  0.32665272    -0.82600
O49         O  0.17733043  0.40474555  0.44382377    -0.80900
O50         O  0.15211289  0.45367997  0.32417619    -0.85100
O51         O  0.19417502  0.49224182  0.36722628    -0.80000
O52         O  0.20022181  0.37272889  0.35873220    -0.81800
O53         O  0.11154572  0.43899037  0.43178687    -0.84500
C54         C  0.22673272  0.48737770  0.37653194     0.96300
C55         C  0.18079481  0.44257993  0.31140989     1.03700
O56         O  0.16654221  0.42821827  0.38356182    -1.13500
O57         O  0.09623537  0.39706522  0.37920532    -0.75900
O58         O  0.09177988  0.44790670  0.36815970    -0.79400
O59         O  0.23770099  0.46034581  0.38456939    -0.80100
C60         C  0.07765584  0.42031329  0.36961490     0.95200
O61         O  0.13888971  0.48184261  0.41395847    -0.78000
O62         O  0.16221585  0.35923894  0.39596630    -0.83200
C63         C  0.21143973  0.39925653  0.44160505     0.97800
C64         C  0.18549884  0.35185085  0.37551230     1.03700
O65         O  0.22861046  0.40051730  0.41611060    -0.78900
C66         C  0.12296934  0.46706617  0.43559416     1.02000
Fe67       Fe  0.14733695  0.02851327  0.62092369     1.65800
Fe68       Fe  0.14011047  0.09582531  0.58169182     1.73200
Fe69       Fe  0.21810565  0.08066068  0.62111265     1.54400
O70         O  0.20797947  0.06538494  0.66609861    -0.82600
O71         O  0.18014126  0.09551320  0.54945770    -0.80900
O72         O  0.15297223  0.04121375  0.66626775    -0.85100
O73         O  0.19685113  0.00442538  0.62300385    -0.80000
O74         O  0.20194260  0.12488230  0.63471293    -0.81800
O75         O  0.11542019  0.05814272  0.55851112    -0.84500
C76         C  0.22966646  0.01043709  0.61500149     0.96300
C77         C  0.18007236  0.05394234  0.68022674     1.03700
O78         O  0.16887573  0.06849743  0.60813099    -1.13500
O79         O  0.09794112  0.09754048  0.61300141    -0.75900
O80         O  0.09369049  0.04612730  0.62111807    -0.79400
O81         O  0.24065832  0.03801379  0.60866488    -0.80100
C82         C  0.07939956  0.07347585  0.62101503     0.95200
O83         O  0.14236210  0.01482366  0.57555871    -0.78000
O84         O  0.16243064  0.13784030  0.59848863    -0.83200
C85         C  0.21430520  0.10073656  0.55216595     0.97800
C86         C  0.18588141  0.14558462  0.61872299     1.03700
O87         O  0.23166944  0.09791840  0.57748725    -0.78900
C88         C  0.12649168  0.03007851  0.55428562     1.02000
Fe89       Fe  0.35264360  0.21636674  0.37071719     1.65800
Fe90       Fe  0.35778735  0.15156867  0.41368490     1.73200
Fe91       Fe  0.27989148  0.16719686  0.37437480     1.54400
O92         O  0.25917672  0.21095037  0.38556869    -0.82600
O93         O  0.33341260  0.10954509  0.39903655    -0.80900
O94         O  0.30369441  0.24145820  0.36727388    -0.85100
O95         O  0.34610061  0.20125134  0.32641051    -0.80000
O96         O  0.26686829  0.15150712  0.41877063    -0.81800
O97         O  0.39896133  0.14645392  0.38211398    -0.84500
C98         C  0.31685388  0.19111034  0.31355648     0.96300
C99         C  0.27053109  0.23730283  0.37560908     1.03700
O100        O  0.32979857  0.17814574  0.38601967    -1.13500
O101        O  0.38458073  0.18980490  0.43422096    -0.75900
O102        O  0.35797600  0.23230704  0.41501200    -0.79400
O103        O  0.28913584  0.18122007  0.32889646    -0.80100
C104        C  0.37429722  0.21834563  0.43677632     0.95200
O105        O  0.40580532  0.19722794  0.37120707    -0.78000
O106        O  0.31861153  0.15533603  0.44637354    -0.83200
C107        C  0.31038876  0.10201187  0.37832281     0.97800
C108        C  0.28446682  0.14986822  0.44410274     1.03700
O109        O  0.29478395  0.12247186  0.36180249    -0.78900
C110        C  0.41855671  0.16931388  0.37279520     1.02000
Fe111      Fe  0.35110763  0.28149369  0.62142894     1.65800
Fe112      Fe  0.35779488  0.34592566  0.57804349     1.73200
Fe113      Fe  0.28023868  0.33227726  0.61867838     1.54400
O114        O  0.25727477  0.28859541  0.60840704    -0.82600
O115        O  0.33507213  0.38842014  0.59203320    -0.80900
O116        O  0.30147553  0.25728581  0.62543150    -0.85100
O117        O  0.34570680  0.29705290  0.66585704    -0.80000
O118        O  0.26707080  0.34806460  0.57455348    -0.81800
O119        O  0.39981806  0.35067096  0.60933609    -0.84500
C120        C  0.31734450  0.30831710  0.67899037     0.96300
C121        C  0.26816281  0.26200027  0.61803914     1.03700
O122        O  0.32936008  0.32004762  0.60623849    -1.13500
O123        O  0.38339860  0.30741902  0.55792076    -0.75900
O124        O  0.35583578  0.26500811  0.57702354    -0.79400
O125        O  0.28962023  0.31837578  0.66396658    -0.80100
C126        C  0.37263466  0.27896235  0.55536457     0.95200
O127        O  0.40461256  0.29984643  0.62048539    -0.78000
O128        O  0.31745034  0.34229246  0.54581020    -0.83200
C129        C  0.31295355  0.39687270  0.61291556     0.97800
C130        C  0.28364874  0.34896245  0.54876015     1.03700
O131        O  0.29742061  0.37712693  0.63050171    -0.78900
C132        C  0.41837171  0.32751337  0.61921020     1.02000
Fe133      Fe  0.64255569  0.21375468  0.36933125     1.65800
Fe134      Fe  0.63883810  0.15068483  0.41527660     1.73200
Fe135      Fe  0.71483791  0.16445945  0.37248196     1.54400
O136        O  0.70405305  0.17609162  0.32661540    -0.82600
O137        O  0.67993022  0.15638433  0.44640161    -0.80900
O138        O  0.64797738  0.19761131  0.32502297    -0.85100
O139        O  0.69146060  0.23941954  0.36499422    -0.80000
O140        O  0.69892777  0.11903362  0.36275820    -0.81800
O141        O  0.61268642  0.18932368  0.43518190    -0.84500
C142        C  0.72487443  0.23521360  0.37252637     0.96300
C143        C  0.67594589  0.18582887  0.31180353     1.03700
O144        O  0.66560735  0.17607252  0.38537278    -1.13500
O145        O  0.59577029  0.14400440  0.38545257    -0.75900
O146        O  0.58968877  0.19383654  0.37094039    -0.79400
O147        O  0.73658910  0.20862915  0.38126154    -0.80100
C148        C  0.57631236  0.16625745  0.37498729     0.95200
O149        O  0.63762025  0.23130214  0.41331169    -0.78000
O150        O  0.66256273  0.10803312  0.40200531    -0.83200
C151        C  0.71386812  0.15085039  0.44296887     0.97800
C152        C  0.68515755  0.09944974  0.38148095     1.03700
O153        O  0.72972655  0.15098150  0.41686153    -0.78900
C154        C  0.62183110  0.21833202  0.43599618     1.02000
Fe155      Fe  0.64190265  0.28126406  0.61992017     1.65800
Fe156      Fe  0.63833695  0.34762033  0.57883299     1.73200
Fe157      Fe  0.71452856  0.33121088  0.61973466     1.54400
O158        O  0.70418428  0.31536562  0.66450358    -0.82600
O159        O  0.67893506  0.34379403  0.54739542    -0.80900
O160        O  0.64749598  0.29462214  0.66488661    -0.85100
O161        O  0.69121761  0.25579612  0.62262492    -0.80000
O162        O  0.69885126  0.37548058  0.63347464    -0.81800
O163        O  0.61184009  0.31052395  0.55632422    -0.84500
C164        C  0.72450896  0.26080287  0.61476998     0.96300
C165        C  0.67608235  0.30449430  0.67876191     1.03700
O166        O  0.66510899  0.32016848  0.60646241    -1.13500
O167        O  0.59579670  0.35196753  0.60928578    -0.75900
O168        O  0.58904414  0.30110145  0.61982738    -0.79400
O169        O  0.73588539  0.28796694  0.60701913    -0.80100
C170        C  0.57609140  0.32901384  0.61819899     0.95200
O171        O  0.63618122  0.26661605  0.57498924    -0.78000
O172        O  0.66254401  0.38935411  0.59513027    -0.83200
C173        C  0.71228404  0.35150753  0.55083362     0.97800
C174        C  0.68475574  0.39650017  0.61662168     1.03700
O175        O  0.72884122  0.34935611  0.57658673    -0.78900
C176        C  0.62064903  0.28167633  0.55345643     1.02000
Fe177      Fe  0.84693843  0.46636571  0.12233232     1.65800
Fe178      Fe  0.85535732  0.40047149  0.08077317     1.73200
Fe179      Fe  0.77617494  0.41502252  0.11915163     1.54400
O180        O  0.78466362  0.42944209  0.16466768    -0.82600
O181        O  0.81585320  0.40112865  0.04793395    -0.80900
O182        O  0.84061831  0.45180477  0.16692727    -0.85100
O183        O  0.79738054  0.49018209  0.12518946    -0.80000
O184        O  0.79189729  0.37070757  0.13201118    -0.81800
O185        O  0.87935884  0.43926092  0.05859054    -0.84500
C186        C  0.76491550  0.48509794  0.11573180     0.96300
C187        C  0.81201822  0.44043952  0.17983921     1.03700
O188        O  0.82590739  0.42696297  0.10765192    -1.13500
O189        O  0.89753656  0.39828836  0.11231990    -0.75900
O190        O  0.90073000  0.44935094  0.12246677    -0.79400
O191        O  0.75424299  0.45807650  0.10705797    -0.80100
C192        C  0.91538731  0.42219543  0.12183484     0.95200
O193        O  0.85208781  0.48169787  0.07767881    -0.78000
O194        O  0.83326137  0.35781232  0.09686248    -0.83200
C195        C  0.78156604  0.39618156  0.05001616     0.97800
C196        C  0.80910526  0.35018464  0.11668331     1.03700
O197        O  0.76387111  0.39864412  0.07513773    -0.78900
C198        C  0.86852466  0.46770266  0.05592369     1.02000
Fe199      Fe  0.85099369  0.03136541  0.87055496     1.65800
Fe200      Fe  0.85471156  0.09664158  0.91377846     1.73200
Fe201      Fe  0.77864877  0.08078475  0.87162587     1.54400
O202        O  0.79001893  0.06748433  0.82634273    -0.82600
O203        O  0.81340429  0.09328416  0.94502298    -0.80900
O204        O  0.84628948  0.04626370  0.82581894    -0.85100
O205        O  0.80205488  0.00593269  0.86625363    -0.80000
O206        O  0.79433813  0.12563847  0.86000231    -0.81800
O207        O  0.87953090  0.05856456  0.93594631    -0.84500
C208        C  0.76857334  0.01033082  0.87332860     0.96300
C209        C  0.81858701  0.05788972  0.81208144     1.03700
O210        O  0.82787142  0.06976536  0.88514212    -1.13500
O211        O  0.89827234  0.10117817  0.88396459    -0.75900
O212        O  0.90401935  0.05070098  0.87188272    -0.79400
O213        O  0.75691166  0.03699832  0.88186240    -0.80100
C214        C  0.91750467  0.07842584  0.87422025     0.95200
O215        O  0.85536818  0.01537800  0.91517743    -0.78000
O216        O  0.83175668  0.13889138  0.89787653    -0.83200
C217        C  0.77927310  0.09774693  0.94138181     0.97800
C218        C  0.80877023  0.14636949  0.87716906     1.03700
O219        O  0.76324842  0.09615002  0.91538481    -0.78900
C220        C  0.87032466  0.02956176  0.93767344     1.02000
Fe221      Fe  0.14012557  0.46810348  0.12214497     1.65800
Fe222      Fe  0.13400083  0.40055460  0.08197272     1.73200
Fe223      Fe  0.21373695  0.42055071  0.11752236     1.54400
O224        O  0.23227824  0.46432550  0.10366256    -0.82600
O225        O  0.15823633  0.35981135  0.09975060    -0.80900
O226        O  0.18865482  0.49433183  0.12349749    -0.85100
O227        O  0.14926805  0.45499698  0.16684878    -0.80000
O228        O  0.22535365  0.40323518  0.07364286    -0.81800
O229        O  0.09254209  0.39778474  0.11396959    -0.84500
C230        C  0.17943404  0.44593703  0.17878225     0.96300
C231        C  0.22106505  0.49067133  0.11341372     1.03700
O232        O  0.16280549  0.42943434  0.10740259    -1.13500
O233        O  0.10806914  0.43745724  0.05896976    -0.75900
O234        O  0.13210380  0.48211909  0.07736732    -0.79400
O235        O  0.20654034  0.43594997  0.16286263    -0.80100
C236        C  0.11684058  0.46645865  0.05591894     0.95200
O237        O  0.08720784  0.44862164  0.12404024    -0.78000
O238        O  0.17235243  0.40099619  0.04796576    -0.83200
C239        C  0.18388399  0.35418208  0.11886537     0.97800
C240        C  0.20700802  0.39843423  0.04911076     1.03700
O241        O  0.20148659  0.37604843  0.13218985    -0.78900
C242        C  0.07352774  0.42091462  0.12301872     1.02000
Fe243      Fe  0.14219958  0.03043080  0.87081536     1.65800
Fe244      Fe  0.13588684  0.09515990  0.91443436     1.73200
Fe245      Fe  0.21430707  0.08036970  0.87527069     1.54400
O246        O  0.23568390  0.03672575  0.88609701    -0.82600
O247        O  0.15958603  0.13768894  0.89960609    -0.80900
O248        O  0.19132363  0.00582532  0.86808148    -0.85100
O249        O  0.14939634  0.04561114  0.82639945    -0.80000
O250        O  0.22692590  0.09600494  0.91975664    -0.81800
O251        O  0.09405533  0.09942863  0.88284716    -0.84500
C252        C  0.17854682  0.05632680  0.81383302     0.96300
C253        C  0.22450192  0.01026128  0.87619016     1.03700
O254        O  0.16440979  0.06883407  0.88670600    -1.13500
O255        O  0.11008845  0.05640727  0.93532015    -0.75900
O256        O  0.13572646  0.01404576  0.91485131    -0.79400
O257        O  0.20578799  0.06666156  0.82952501    -0.80100
C258        C  0.11936514  0.02747419  0.93692221     0.95200
O259        O  0.08898944  0.04884389  0.87071225    -0.78000
O260        O  0.17532199  0.09249390  0.94742584    -0.83200
C261        C  0.18330529  0.14553489  0.87956110     0.97800
C262        C  0.20954182  0.09772489  0.94516665     1.03700
O263        O  0.19897967  0.12504926  0.86304518    -0.78900
C264        C  0.07536875  0.07637230  0.87249873     1.02000
Fe265      Fe  0.35092562  0.21950649  0.12205129     1.65800
Fe266      Fe  0.35448219  0.15334732  0.08049358     1.73200
Fe267      Fe  0.27774399  0.17042090  0.12107362     1.54400
O268        O  0.28849823  0.18564502  0.16592131    -0.82600
O269        O  0.31336953  0.15524834  0.04870876    -0.80900
O270        O  0.34571598  0.20530846  0.16676158    -0.85100
O271        O  0.30229594  0.24500386  0.12583348    -0.80000
O272        O  0.29212699  0.12573439  0.13426040    -0.81800
O273        O  0.37977224  0.19097106  0.05768312    -0.84500
C274        C  0.26921752  0.24069926  0.11733512     0.96300
C275        C  0.31680183  0.19582014  0.18040874     1.03700
O276        O  0.32746945  0.18083688  0.10804943    -1.13500
O277        O  0.39783798  0.14968507  0.11076600    -0.75900
O278        O  0.40388018  0.20057740  0.12108320    -0.79400
O279        O  0.25739031  0.21391278  0.10899084    -0.80100
C280        C  0.41714130  0.17289320  0.11994282     0.95200
O281        O  0.35565618  0.23451131  0.07736875    -0.78000
O282        O  0.33113135  0.11194010  0.09759563    -0.83200
C283        C  0.27903630  0.15098072  0.05192090     0.97800
C284        C  0.30771037  0.10486423  0.11815917     1.03700
O285        O  0.26266646  0.15359024  0.07766557    -0.78900
C286        C  0.37116639  0.21998857  0.05548776     1.02000
Fe287      Fe  0.34908438  0.28145224  0.87096447     1.65800
Fe288      Fe  0.35491038  0.34745379  0.91256795     1.73200
Fe289      Fe  0.27792177  0.33183697  0.87160371     1.54400
O290        O  0.28824307  0.31683155  0.82656248    -0.82600
O291        O  0.31408692  0.34489352  0.94435078    -0.80900
O292        O  0.34430472  0.29545781  0.82618232    -0.91500
O293        O  0.29958762  0.25660332  0.86739717    -0.80000
O294        O  0.29504726  0.37610863  0.85880832    -0.81800
O295        O  0.38011415  0.30964386  0.93453400    -0.84500
C296        C  0.26637010  0.26156215  0.87496958     0.96300
C297        C  0.31605048  0.30568018  0.81228246     1.03700
O298        O  0.32699001  0.32039451  0.88488256    -1.13500
O299        O  0.39780797  0.35116667  0.88183393    -0.75900
O300        O  0.40243343  0.30005698  0.87175517    -0.79400
O301        O  0.25527412  0.28859307  0.88302953    -0.80100
C302        C  0.41635497  0.32767589  0.87261751     0.95200
O303        O  0.35358275  0.26651538  0.91571903    -0.78000
O304        O  0.33204257  0.38945216  0.89686374    -0.83200
C305        C  0.28001595  0.35030998  0.94115955     0.97800
C306        C  0.30969368  0.39693628  0.87579147     1.03700
O307        O  0.26354076  0.34848088  0.91532264    -0.78900
C308        C  0.37021097  0.28093001  0.93721131     1.02000
Fe309      Fe  0.64235359  0.21471196  0.12039895     1.65800
Fe310      Fe  0.63646802  0.14846543  0.07865296     1.73200
Fe311      Fe  0.71437187  0.16491711  0.11847415     1.54400
O312        O  0.73612250  0.20837147  0.10674836    -0.82600
O313        O  0.65963669  0.10663438  0.09474938    -0.80900
O314        O  0.69161126  0.24015413  0.12241041    -0.85100
O315        O  0.64923916  0.20117488  0.16549623    -0.80000
O316        O  0.72788600  0.14854382  0.07472778    -0.81800
O317        O  0.59385700  0.14470611  0.10951459    -0.84500
C318        C  0.67763221  0.19000315  0.17868325     0.96300
C319        C  0.72471479  0.23542563  0.11433898     1.03700
O320        O  0.66461498  0.17584578  0.10608412    -1.13500
O321        O  0.61071360  0.18583126  0.05650340    -0.75900
O322        O  0.63572537  0.22942273  0.07541701    -0.79400
O323        O  0.70507969  0.17921528  0.16376902    -0.80100
C324        C  0.62004898  0.21457518  0.05358207     0.95200
O325        O  0.58927893  0.19539678  0.12116843    -0.78000
O326        O  0.67669094  0.15107224  0.04630375    -0.83200
C327        C  0.68288610  0.09951818  0.11536522     0.97800
C328        C  0.71091987  0.14652710  0.04919431     1.03700
O329        O  0.69886853  0.12040097  0.13133481    -0.78900
C330        C  0.57519967  0.16783982  0.11921514     1.02000
Fe331      Fe  0.64137711  0.28095647  0.87030642     1.65800
Fe332      Fe  0.63666427  0.34681236  0.91192990     1.73200
Fe333      Fe  0.71363777  0.33116369  0.87180770     1.54400
O334        O  0.73531020  0.28793192  0.88345008    -0.82600
O335        O  0.66087401  0.38886652  0.89661615    -0.80900
O336        O  0.69079621  0.25615156  0.86691647    -0.85100
O337        O  0.64712306  0.29524878  0.82538130    -0.80000
O338        O  0.72757023  0.34779207  0.91557762    -0.81800
O339        O  0.59474962  0.35105886  0.88073131    -0.84500
C340        C  0.67559048  0.30636352  0.81202815     0.96300
C341        C  0.72411215  0.26107935  0.87465324     1.03700
O342        O  0.66420298  0.31974680  0.88447076    -1.13500
O343        O  0.61018689  0.30899158  0.93354877    -0.75900
O344        O  0.63623949  0.26576697  0.91527215    -0.79400
O345        O  0.70365780  0.31641160  0.82681714    -0.80100
C346        C  0.62064621  0.28062678  0.93699867     0.95200
O347        O  0.58808715  0.30000921  0.87116402    -0.78000
O348        O  0.67663893  0.34337206  0.94390481    -0.83200
C349        C  0.68334708  0.39634476  0.87552929     0.97800
C350        C  0.71064414  0.34915171  0.94117432     1.03700
O351        O  0.69766841  0.37544791  0.85867037    -0.78900
C352        C  0.57479469  0.32777511  0.87301044     1.02000
C353        C  0.61480356  0.26461183  0.96712182    -0.07100
C354        C  0.61024735  0.23172068  0.96777809    -0.18200
C355        C  0.60854332  0.21498136  0.99544997     0.10100
C356        C  0.61337285  0.23111693  0.02375634    -0.07000
C357        C  0.61598794  0.26417832  0.02307476    -0.18200
C358        C  0.61631317  0.28109854  0.99541170     0.10200
S359        S  0.60185230  0.17296234  0.99244821    -0.33200
S360        S  0.62143288  0.32352671  0.99712467    -0.33200
H361        H  0.61991543  0.32681440  0.02913419     0.28200
H362        H  0.57053771  0.17307415  0.01139081     0.28200
H363        H  0.60821885  0.21879229  0.94642343     0.18800
H364        H  0.61898289  0.27686643  0.04444061     0.18800
C365        C  0.45631436  0.33174900  0.86580569    -0.07100
C366        C  0.47557247  0.35636576  0.88037129    -0.18200
C367        C  0.51408483  0.35669944  0.88194602     0.10100
C368        C  0.53452433  0.33215697  0.86794120    -0.07000
C369        C  0.51525759  0.30930256  0.85085432    -0.18200
C370        C  0.47675605  0.30907242  0.84924535     0.10200
S371        S  0.53464761  0.38738418  0.90496576    -0.33200
S372        S  0.45560790  0.27904635  0.82572854    -0.33200
H373        H  0.42623548  0.29817743  0.81620279     0.28200
H374        H  0.55241201  0.36600651  0.92460272     0.28200
H375        H  0.46054749  0.37421654  0.89288072     0.18800
H376        H  0.53028681  0.29093114  0.83907975     0.18800
C377        C  0.45704279  0.16814803  0.12674874    -0.07100
C378        C  0.47479037  0.14170083  0.11428104    -0.18200
C379        C  0.51320751  0.13896518  0.11451940     0.10100
C380        C  0.53513863  0.16393703  0.12637160    -0.07000
C381        C  0.51720726  0.18860402  0.14184273    -0.18200
C382        C  0.47865828  0.19070936  0.14270048     0.10200
S383        S  0.53198265  0.10377246  0.09769108    -0.33200
S384        S  0.45794309  0.22253175  0.16410949    -0.33200
H385        H  0.49004920  0.23257864  0.17934650     0.28200
H386        H  0.55507245  0.09769385  0.12286379     0.28200
H387        H  0.45875597  0.12345222  0.10302614     0.18800
H388        H  0.53350020  0.20716415  0.15228263     0.18800
C389        C  0.37685304  0.26481719  0.96692764    -0.07100
C390        C  0.37749676  0.28331148  0.99368856    -0.18200
C391        C  0.37835421  0.26966158  0.02284677     0.10100
C392        C  0.37774310  0.23641892  0.02581099    -0.07000
C393        C  0.37980620  0.21803030  0.99901624    -0.18200
C394        C  0.37954356  0.23170868  0.96984884     0.10200
S395        S  0.38033170  0.29619081  0.05508342    -0.33200
S396        S  0.38246501  0.20543720  0.93748413    -0.33200
H397        H  0.40506345  0.22568335  0.92013025     0.28200
H398        H  0.40477021  0.27735744  0.07199507     0.28200
H399        H  0.37619696  0.30877826  0.99201577     0.18800
H400        H  0.38019740  0.19253944  0.00062812     0.18800
C401        C  0.25169435  0.48472695  0.87312725    -0.07100
C402        C  0.27858382  0.48027409  0.89577286    -0.18200
C403        C  0.30141599  0.45363300  0.89553418     0.10100
C404        C  0.29661630  0.43016656  0.87254593    -0.07000
C405        C  0.27219661  0.43658537  0.84836988    -0.18200
C406        C  0.25022314  0.46345334  0.84823176     0.10200
S407        S  0.33482947  0.45081695  0.92586224    -0.33200
S408        S  0.22084555  0.46906031  0.81542223    -0.33200
H409        H  0.22589399  0.50190830  0.81453595     0.28200
H410        H  0.36336510  0.44143660  0.90614265     0.28200
H411        H  0.28106930  0.49712903  0.91433790     0.18800
H412        H  0.26893007  0.41985657  0.82978463     0.18800
C413        C  0.19623973  0.17897565  0.87650617    -0.07100
C414        C  0.21607159  0.18707635  0.84994825    -0.18200
C415        C  0.23751029  0.21453154  0.84836660     0.10100
C416        C  0.23989281  0.23480847  0.87397520    -0.07000
C417        C  0.21792086  0.22833348  0.89962038    -0.18200
C418        C  0.19610607  0.20088783  0.90117684     0.10200
S419        S  0.26149182  0.22209196  0.81299258    -0.33200
S420        S  0.17156540  0.19422292  0.93636937    -0.33200
H421        H  0.13776500  0.18892227  0.92144510     0.28200
H422        H  0.25855037  0.25508521  0.81468066     0.28200
H423        H  0.21611515  0.17120976  0.83048195     0.18800
H424        H  0.21902821  0.24404862  0.91919101     0.18800
C425        C  0.22875129  0.10923962  0.97283436    -0.07100
C426        C  0.25255256  0.13515972  0.96953929    -0.18200
C427        C  0.26679718  0.15095371  0.99504097     0.10100
C428        C  0.25836352  0.14003225  0.02479514    -0.07000
C429        C  0.23417560  0.11437028  0.02819108    -0.18200
C430        C  0.21942188  0.09881755  0.00266264     0.10200
S431        S  0.29394485  0.18590054  0.98801506    -0.33200
S432        S  0.19012102  0.06513060  0.00983911    -0.33200
H433        H  0.20053164  0.04836067  0.98345710     0.28200
H434        H  0.28431557  0.20136165  0.01534888     0.28200
H435        H  0.25861070  0.14426772  0.94690273     0.18800
H436        H  0.22811341  0.10536422  0.05086326     0.18800
C437        C  0.22585047  0.38761415  0.02090172    -0.07100
C438        C  0.20624331  0.36780758  0.00056873    -0.18200
C439        C  0.22304029  0.35453564  0.97478609     0.10100
C440        C  0.26024965  0.36158450  0.96859728    -0.07000
C441        C  0.27968811  0.38153164  0.98873631    -0.18200
C442        C  0.26298682  0.39478229  0.01441915     0.10200
S443        S  0.19615355  0.32754114  0.95186057    -0.33200
S444        S  0.29022367  0.42184771  0.03687687    -0.33200
H445        H  0.26107790  0.44288739  0.04163853     0.28200
H446        H  0.22536984  0.30679036  0.94593409     0.28200
H447        H  0.17786133  0.36161132  0.00534724     0.18800
H448        H  0.30806858  0.38774700  0.98391828     0.18800
C449        C  0.11126933  0.48146541  0.02554246    -0.07100
C450        C  0.11902373  0.46343647  0.99935892    -0.18200
C451        C  0.12053038  0.47699130  0.97003841     0.10100
C452        C  0.11239330  0.00977944  0.96605686    -0.07000
C453        C  0.10269005  0.02706594  0.99242316    -0.18200
C454        C  0.10138025  0.01306550  0.02145946     0.10200
S455        S  0.13124565  0.45169137  0.93788079    -0.33200
S456        S  0.08752996  0.03737976  0.05324277    -0.33200
H457        H  0.07024965  0.01281229  0.06952641     0.28200
H458        H  0.13430300  0.42320301  0.95413046     0.28200
H459        H  0.12563488  0.43874105  0.00211026     0.18800
H460        H  0.09709622  0.05206512  0.99071612     0.18800
C461        C  0.19764402  0.32142493  0.12279050    -0.07100
C462        C  0.19500825  0.30069835  0.09766884    -0.18200
C463        C  0.21775676  0.27418998  0.09520174     0.10100
C464        C  0.24350609  0.26767603  0.11858693    -0.07000
C465        C  0.24421973  0.28699941  0.14468123    -0.18200
C466        C  0.22117493  0.31317994  0.14737276     0.10200
S467        S  0.21488302  0.25141316  0.06039182    -0.33200
S468        S  0.22338841  0.33509103  0.18277983    -0.33200
H469        H  0.18657455  0.34514779  0.18171471     0.28200
H470        H  0.25299284  0.24645776  0.05778997     0.28200
H471        H  0.17742472  0.30656679  0.07848736     0.18800
H472        H  0.26279272  0.28150203  0.16333396     0.18800
C473        C  0.24770526  0.01796630  0.11491910    -0.07100
C474        C  0.25103653  0.03417489  0.14287023    -0.18200
C475        C  0.27430005  0.06048013  0.14596900     0.10100
C476        C  0.29394862  0.07181398  0.12023036    -0.07000
C477        C  0.29277735  0.05403815  0.09300826    -0.18200
C478        C  0.26975086  0.02761129  0.08998801     0.10200
S479        S  0.27781871  0.07836177  0.18335886    -0.33200
S480        S  0.26353420  0.51043046  0.05192383    -0.33200
H481        H  0.22603137  0.50253114  0.05442152     0.28200
H482        H  0.31388966  0.08980270  0.17919478     0.28200
H483        H  0.23546342  0.02616705  0.16255851     0.18800
H484        H  0.30740327  0.06230256  0.07292380     0.18800
C485        C  0.95743187  0.08310481  0.86715610    -0.07100
C486        C  0.97583126  0.05929636  0.85081650    -0.18200
C487        C  0.01430874  0.05841722  0.84908986     0.10100
C488        C  0.03558222  0.08096359  0.86536474    -0.07000
C489        C  0.01726042  0.10655943  0.87886816    -0.18200
C490        C  0.97877621  0.10828699  0.87934391     0.10200
S491        S  0.03427719  0.02785106  0.82578684    -0.33200
S492        S  0.95924582  0.14234670  0.89768950    -0.33200
H493        H  0.93619912  0.14928861  0.87270538     0.28200
H494        H  0.06402029  0.04657841  0.81578922     0.28200
H495        H  0.96015744  0.04065128  0.83981296     0.18800
H496        H  0.03290688  0.12478380  0.89053024     0.18800
C497        C  0.75859375  0.10787059  0.96843163    -0.07100
C498        C  0.74073163  0.13705321  0.96701679    -0.18200
C499        C  0.72712929  0.15141914  0.99344509     0.10100
C500        C  0.73072865  0.13595165  0.02188785    -0.07000
C501        C  0.74839160  0.10668873  0.02329054    -0.18200
C502        C  0.76214715  0.09240000  0.99689010     0.10200
S503        S  0.70696922  0.19001382  0.98953512    -0.33200
S504        S  0.78283622  0.05403613  0.00089404    -0.33200
H505        H  0.77551165  0.04376916  0.97086795     0.28200
H506        H  0.71409907  0.20005643  0.01963090     0.28200
H507        H  0.73904139  0.14951254  0.94540068     0.18800
H508        H  0.75011420  0.09425053  0.04492038     0.18800
C509        C  0.75072023  0.23464988  0.87281085    -0.07100
C510        C  0.77566758  0.22960502  0.89684735    -0.18200
C511        C  0.79763456  0.20241343  0.89787979     0.10100
C512        C  0.79491213  0.17947533  0.87419885    -0.07000
C513        C  0.77263321  0.18654375  0.84871332    -0.18200
C514        C  0.75105922  0.21373811  0.84763870     0.10200
S515        S  0.82694868  0.19798934  0.93078842    -0.33200
S516        S  0.72486130  0.22059843  0.81321882    -0.33200
H517        H  0.72955255  0.25353643  0.81372316     0.28200
H518        H  0.80699534  0.17193692  0.94200197     0.28200
H519        H  0.77669471  0.24612736  0.91578105     0.18800
H520        H  0.77096162  0.17021077  0.82966393     0.18800
C521        C  0.74107486  0.48515795  0.87066370    -0.07100
C522        C  0.71541954  0.48025283  0.89422534    -0.18200
C523        C  0.69289441  0.45318134  0.89489143     0.10100
C524        C  0.69672991  0.42965358  0.87189416    -0.07000
C525        C  0.72006020  0.43632043  0.84694742    -0.18200
C526        C  0.74161818  0.46372835  0.84588117     0.10200
S527        S  0.66123331  0.44986354  0.92643013    -0.33200
S528        S  0.76906351  0.47001217  0.81202151    -0.33200
H529        H  0.76770891  0.00071305  0.81250504     0.28200
H530        H  0.63145330  0.44089231  0.90766626     0.28200
H531        H  0.71370066  0.49713626  0.91280728     0.18800
H532        H  0.72259525  0.41952051  0.82837654     0.18800
C533        C  0.95527726  0.41894135  0.12962228    -0.07100
C534        C  0.97408016  0.39193682  0.11962185    -0.18200
C535        C  0.01255460  0.39013971  0.12055404     0.10100
C536        C  0.03351054  0.41665710  0.13029427    -0.07000
C537        C  0.01455420  0.44210919  0.14353509    -0.18200
C538        C  0.97592359  0.44327220  0.14399365     0.10200
S539        S  0.03264021  0.35374778  0.10765293    -0.33200
S540        S  0.95390525  0.47609239  0.16296541    -0.33200
H541        H  0.98586094  0.48970653  0.17561229     0.28200
H542        H  0.05625170  0.35142337  0.13310118     0.28200
H543        H  0.95884004  0.37232363  0.10986845     0.18800
H544        H  0.03010145  0.46188400  0.15255015     0.18800
C545        C  0.87577091  0.01277044  0.96745798    -0.07100
C546        C  0.87653838  0.03082987  0.99452232    -0.18200
C547        C  0.87741265  0.01678411  0.02354582     0.10100
C548        C  0.87379036  0.48407621  0.02595189    -0.07000
C549        C  0.87402633  0.46567430  0.99908773    -0.18200
C550        C  0.87397426  0.47944217  0.96977259     0.10200
S551        S  0.87978015  0.04288622  0.05609391    -0.33200
S552        S  0.87497881  0.45404005  0.93650950    -0.33200
H553        H  0.88633602  0.92592477  0.95191864     0.28200
H554        H  0.90186944  0.52435443  0.07222466     0.28200
H555        H  0.87556012  0.05632787  0.99320436     0.18800
H556        H  0.87298357  0.44024565  0.00105786     0.18800
C557        C  0.72968172  0.36018984  0.96892570    -0.07100
C558        C  0.70970871  0.37954314  0.98909242    -0.18200
C559        C  0.72568376  0.39194778  0.01563136     0.10100
C560        C  0.76272310  0.38504245  0.02211193    -0.07000
C561        C  0.78277702  0.36589773  0.00176339    -0.18200
C562        C  0.76657230  0.35306146  0.97557856     0.10200
S563        S  0.69892572  0.41754254  0.04000405    -0.33200
S564        S  0.79375705  0.32656112  0.95268895    -0.33200
H565        H  0.76458470  0.30560950  0.94629205     0.28200
H566        H  0.66638804  0.41704463  0.02256243     0.28200
H567        H  0.68148757  0.38541452  0.98371297     0.18800
H568        H  0.81108253  0.35992058  0.00683491     0.18800
C569        C  0.74005840  0.01171493  0.11547945    -0.07100
C570        C  0.73747915  0.02935987  0.14255976    -0.18200
C571        C  0.71497647  0.05591182  0.14454002     0.10100
C572        C  0.69562770  0.06635511  0.11834300    -0.07000
C573        C  0.69611984  0.04731434  0.09187915    -0.18200
C574        C  0.71814428  0.02027372  0.09013044     0.10200
S575        S  0.71243439  0.07546220  0.18116947    -0.33200
S576        S  0.72229214  0.50143417  0.05351583    -0.33200
H577        H  0.75969958  0.49365937  0.05631144     0.28200
H578        H  0.67624531  0.08630435  0.17703737     0.28200
H579        H  0.75327523  0.02240397  0.16246271     0.18800
H580        H  0.68168035  0.05487299  0.07148146     0.18800
C581        C  0.79660334  0.31674654  0.11942176    -0.07100
C582        C  0.79664925  0.29770768  0.09294654    -0.18200
C583        C  0.77412101  0.27072614  0.09066170     0.10100
C584        C  0.75099176  0.26231220  0.11538746    -0.07000
C585        C  0.75313711  0.27988935  0.14255330    -0.18200
C586        C  0.77631184  0.30622320  0.14515400     0.10200
S587        S  0.77366859  0.24982158  0.05470099    -0.33200
S588        S  0.77845089  0.32550781  0.18195243    -0.33200
H589        H  0.81460240  0.33692630  0.17819924     0.28200
H590        H  0.73570866  0.24327537  0.05498437     0.28200
H591        H  0.81186533  0.30526991  0.07290896     0.18800
H592        H  0.73652008  0.27305117  0.16204451     0.18800
C593        C  0.67641193  0.30654883  0.77790752    -0.07100
C594        C  0.65614090  0.28335366  0.76216915    -0.18200
C595        C  0.65628889  0.28144926  0.73019222     0.10100
C596        C  0.67659194  0.30380192  0.71285345    -0.07000
C597        C  0.69688888  0.32705080  0.72854738    -0.18200
C598        C  0.69694499  0.32884424  0.76069642     0.10200
S599        S  0.63087957  0.24908927  0.71341711    -0.33200
S600        S  0.72158688  0.36091407  0.77900585    -0.33200
H601        H  0.73517135  0.37528260  0.75226630     0.28200
H602        H  0.65719773  0.24246579  0.69081696     0.28200
H603        H  0.64064641  0.26587849  0.77495146     0.18800
H604        H  0.71203643  0.34446248  0.71546422     0.18800
C605        C  0.67639176  0.18451294  0.27774029    -0.07100
C606        C  0.70938318  0.19130120  0.26227408    -0.18200
C607        C  0.71063404  0.19384170  0.23025680     0.10100
C608        C  0.67825052  0.18887893  0.21277645    -0.07000
C609        C  0.64543153  0.18149289  0.22825970    -0.18200
C610        C  0.64426517  0.17872387  0.26022994     0.10200
S611        S  0.75398195  0.20531564  0.21348911    -0.33200
S612        S  0.60134820  0.16605715  0.27704798    -0.33200
H613        H  0.61764602  0.14771069  0.30014854     0.28200
H614        H  0.73835898  0.22487439  0.19110884     0.28200
H615        H  0.73420386  0.19596161  0.27530843     0.18800
H616        H  0.62057549  0.17686417  0.21525139     0.18800
C617        C  0.61526172  0.23652612  0.46491237    -0.07100
C618        C  0.60493446  0.21973905  0.49149121    -0.18200
C619        C  0.60403044  0.23417118  0.52039148     0.10100
C620        C  0.61439978  0.26613448  0.52340378    -0.07000
C621        C  0.62224629  0.28349430  0.49681363    -0.18200
C622        C  0.62233322  0.26936448  0.46780619     0.10200
S623        S  0.58908913  0.21061221  0.55243160    -0.33200
S624        S  0.63226808  0.29486084  0.43585572    -0.33200
H625        H  0.60353471  0.28261268  0.41769955     0.28200
H626        H  0.57276220  0.23571607  0.56843118     0.28200
H627        H  0.59841047  0.19482439  0.49006274     0.18800
H628        H  0.62960605  0.30823592  0.49869782     0.18800
C629        C  0.31629502  0.30844428  0.71310879    -0.07100
C630        C  0.33790651  0.28633193  0.72878364    -0.18200
C631        C  0.33742016  0.28401024  0.76071490     0.10100
C632        C  0.31557101  0.30501475  0.77817054    -0.07000
C633        C  0.29351761  0.32683449  0.76251933    -0.18200
C634        C  0.29375318  0.32893668  0.73050735     0.10200
S635        S  0.36418119  0.25260068  0.77718187    -0.33200
S636        S  0.26596459  0.35941056  0.71375505    -0.33200
H637        H  0.29359738  0.36886645  0.69325442     0.28200
H638        H  0.33726394  0.24381498  0.79865652     0.28200
H639        H  0.35468880  0.26989008  0.71600039     0.18800
H640        H  0.27670664  0.34320581  0.77535635     0.18800
C641        C  0.45813666  0.33210557  0.62632622    -0.07100
C642        C  0.47696965  0.35729791  0.61239920    -0.18200
C643        C  0.51545905  0.35886379  0.61207691     0.10100
C644        C  0.53623371  0.33387662  0.62491738    -0.07000
C645        C  0.51731106  0.31046234  0.64150835    -0.18200
C646        C  0.47882994  0.30981412  0.64308343     0.10200
S647        S  0.53568890  0.39228672  0.59286870    -0.33200
S648        S  0.45803353  0.27991170  0.66686501    -0.33200
H649        H  0.42835277  0.29886994  0.67607070     0.28200
H650        H  0.55803211  0.40040069  0.61803924     0.28200
H651        H  0.46171241  0.37526094  0.60026500     0.18800
H652        H  0.53258573  0.29197725  0.65286581     0.18800
C653        C  0.31597347  0.19606938  0.21446648    -0.07100
C654        C  0.29267385  0.17463018  0.22962807    -0.18200
C655        C  0.29149980  0.17286071  0.26162923     0.10100
C656        C  0.31507938  0.19224988  0.27946700    -0.07000
C657        C  0.33813411  0.21387661  0.26422900    -0.18200
C658        C  0.33824951  0.21654206  0.23232807     0.10200
S659        S  0.26019783  0.14453787  0.27792719    -0.33200
S660        S  0.36615350  0.24771547  0.21631177    -0.33200
H661        H  0.33911269  0.25740668  0.19529791     0.28200
H662        H  0.23804611  0.16801517  0.29113158     0.28200
H663        H  0.27528147  0.15881744  0.21644810     0.18800
H664        H  0.35564469  0.22966547  0.27732714     0.18800
C665        C  0.45830874  0.16384744  0.36705762    -0.07100
C666        C  0.47629034  0.14126282  0.38509855    -0.18200
C667        C  0.51468990  0.13943672  0.38613248     0.10100
C668        C  0.53628188  0.16119594  0.36913220    -0.07000
C669        C  0.51815459  0.18188744  0.34902935    -0.18200
C670        C  0.47965977  0.18305601  0.34742383     0.10200
S671        S  0.53383337  0.11089877  0.41207555    -0.33200
S672        S  0.45955688  0.20961366  0.31999009    -0.33200
H673        H  0.42818179  0.19084457  0.31447820     0.28200
H674        H  0.55479353  0.09626938  0.38906475     0.28200
H675        H  0.46040029  0.12598746  0.40001109     0.18800
H676        H  0.53409958  0.19797141  0.33498293     0.18800
C677        C  0.37985955  0.23477572  0.46657042    -0.07100
C678        C  0.38266263  0.21630463  0.49326684    -0.18200
C679        C  0.38249041  0.22992489  0.52250445     0.10100
C680        C  0.37851053  0.26289040  0.52556155    -0.07000
C681        C  0.37754671  0.28146192  0.49891049    -0.18200
C682        C  0.37870021  0.26798597  0.46970335     0.10200
S683        S  0.38790112  0.20394117  0.55478870    -0.33200
S684        S  0.37873576  0.29473973  0.43765005    -0.33200
H685        H  0.40434153  0.27724023  0.42057727     0.28200
H686        H  0.40935810  0.22529766  0.57195701     0.28200
H687        H  0.38407065  0.19085010  0.49150208     0.18800
H688        H  0.37500546  0.30685107  0.50074275     0.18800
C689        C  0.17933242  0.05545571  0.71435013    -0.07100
C690        C  0.21267220  0.05427429  0.73063705    -0.18200
C691        C  0.21359314  0.05528048  0.76276490     0.10100
C692        C  0.18028375  0.05670360  0.77962038    -0.07000
C693        C  0.14700531  0.05787057  0.76322252    -0.18200
C694        C  0.14616696  0.05806318  0.73116558     0.10200
S695        S  0.25813008  0.05327049  0.78064643    -0.33200
S696        S  0.10187713  0.06364177  0.71340402    -0.33200
H697        H  0.11491777  0.08496025  0.69118854     0.28200
H698        H  0.25573602  0.08414451  0.79231400     0.28200
H699        H  0.23837664  0.05236780  0.71824005     0.18800
H700        H  0.12119923  0.05963867  0.77549491     0.18800
C701        C  0.30081458  0.43012188  0.61390595    -0.07100
C702        C  0.28989902  0.44392741  0.58610006    -0.18200
C703        C  0.26805452  0.47103733  0.58549843     0.10100
C704        C  0.25730705  0.48510094  0.61338874    -0.07000
C705        C  0.27068891  0.47283092  0.64104177    -0.18200
C706        C  0.29275363  0.44584784  0.64155161     0.10200
S707        S  0.25326674  0.48500516  0.54844306    -0.33200
S708        S  0.31017839  0.43291432  0.67800913    -0.33200
H709        H  0.34048102  0.41645043  0.66612631     0.28200
H710        H  0.22172538  0.50124499  0.55793583     0.28200
H711        H  0.29590711  0.43210704  0.56467049     0.18800
H712        H  0.26146607  0.98302832  0.66283230     0.18800
C713        C  0.19833293  0.17921150  0.62197613    -0.07100
C714        C  0.22242002  0.18660788  0.64621797    -0.18200
C715        C  0.24338386  0.21438007  0.64640709     0.10100
C716        C  0.24158504  0.23538793  0.62132266    -0.07000
C717        C  0.21510410  0.22977729  0.59855275    -0.18200
C718        C  0.19309194  0.20237916  0.59883862     0.10200
S719        S  0.27187592  0.22164922  0.67953164    -0.33200
S720        S  0.16040334  0.19807541  0.56810216    -0.33200
H721        H  0.13145004  0.18918399  0.58772201     0.28200
H722        H  0.26616409  0.25441998  0.67961922     0.28200
H723        H  0.22605556  0.17007366  0.66485686     0.18800
H724        H  0.21241991  0.24628736  0.57977231     0.18800
C725        C  0.23319962  0.11270598  0.52473206    -0.07100
C726        C  0.21455226  0.13516724  0.50684006    -0.18200
C727        C  0.23069912  0.14850191  0.48087234     0.10100
C728        C  0.26601086  0.13866056  0.47201773    -0.07000
C729        C  0.28476921  0.11638621  0.49002008    -0.18200
C730        C  0.26874136  0.10319531  0.51608953     0.10200
S731        S  0.20575912  0.17898592  0.46113178    -0.33200
S732        S  0.29428818  0.07339655  0.53625767    -0.33200
H733        H  0.26336391  0.05496677  0.54383691     0.28200
H734        H  0.23704655  0.19674959  0.45297201     0.28200
H735        H  0.18745957  0.14309513  0.51364989     0.18800
H736        H  0.31184023  0.10842992  0.48318090     0.18800
C737        C  0.18269157  0.44327237  0.27743251    -0.07100
C738        C  0.16929774  0.47003655  0.26222000    -0.18200
C739        C  0.16985525  0.47226001  0.23024721     0.10100
C740        C  0.18299807  0.44673240  0.21259549    -0.07000
C741        C  0.19776838  0.42048096  0.22772946    -0.18200
C742        C  0.19746600  0.41833549  0.25978705     0.10200
S743        S  0.15482199  0.50886076  0.21349939    -0.33200
S744        S  0.21389234  0.38224956  0.27652833    -0.33200
H745        H  0.18512681  0.37998405  0.29794014     0.28200
H746        H  0.17907520  0.50787833  0.18848889     0.28200
H747        H  0.15887309  0.48971895  0.27540698     0.18800
H748        H  0.20800802  0.40080337  0.21445802     0.18800
C749        C  0.23052722  0.38857085  0.46965214    -0.07100
C750        C  0.20950206  0.37252404  0.49188924    -0.18200
C751        C  0.22586242  0.35836318  0.51729306     0.10100
C752        C  0.26429740  0.36069843  0.52126823    -0.07000
C753        C  0.28523835  0.37719940  0.49931096    -0.18200
C754        C  0.26887862  0.39139851  0.47393347     0.10200
S755        S  0.19628947  0.33628951  0.54264035    -0.33200
S756        S  0.29837401  0.41393916  0.44891753    -0.33200
H757        H  0.27250020  0.43785799  0.44380135     0.28200
H758        H  0.22128047  0.31142939  0.54681178     0.28200
H759        H  0.18006878  0.36971961  0.48887004     0.18800
H760        H  0.31465073  0.38006716  0.50242133     0.18800
C761        C  0.11839818  0.48291798  0.46596338    -0.07100
C762        C  0.12170204  0.01585683  0.46788068    -0.18200
C763        C  0.12222961  0.03189832  0.49593341     0.10100
C764        C  0.12081250  0.01478634  0.52381623    -0.07000
C765        C  0.11584180  0.48216311  0.52196368    -0.18200
C766        C  0.11347162  0.46615723  0.49387510     0.10200
S767        S  0.12775015  0.07405961  0.49423061    -0.33200
S768        S  0.10608379  0.42416915  0.49578219    -0.33200
H769        H  0.07372144  0.42539590  0.47811592     0.28200
H770        H  0.09331101  0.07964547  0.50782813     0.28200
H771        H  0.12437782  0.02943751  0.44699228     0.18800
H772        H  0.11333253  0.46881386  0.54301016     0.18800
C773        C  0.19943944  0.31877610  0.37266496    -0.07100
C774        C  0.22390544  0.31233329  0.34849860    -0.18200
C775        C  0.24586736  0.28539551  0.34825847     0.10100
C776        C  0.24440235  0.26403297  0.37305592    -0.07000
C777        C  0.21782264  0.26875373  0.39590439    -0.18200
C778        C  0.19510563  0.29549943  0.39583225     0.10200
S779        S  0.27502460  0.27967668  0.31534485    -0.33200
S780        S  0.16261897  0.29881763  0.42675668    -0.33200
H781        H  0.13321891  0.30684219  0.40732910     0.28200
H782        H  0.26917574  0.24689516  0.31396638     0.28200
H783        H  0.22703285  0.32899847  0.32988714     0.18800
H784        H  0.21547043  0.25197679  0.41451240     0.18800
C785        C  0.25233524  0.01442929  0.37683154    -0.07100
C786        C  0.26030497  0.02973912  0.34916892    -0.18200
C787        C  0.28310622  0.05641446  0.34834785     0.10100
C788        C  0.29742295  0.06890665  0.37593640    -0.07000
C789        C  0.29142615  0.05223232  0.40334812    -0.18200
C790        C  0.26876143  0.02539818  0.40413897     0.10200
S791        S  0.29293495  0.07334826  0.31141110    -0.33200
S792        S  0.26173542  0.50736582  0.44093633    -0.33200
H793        H  0.22509005  0.49832204  0.43523185     0.28200
H794        H  0.32698339  0.08667409  0.31990861     0.28200
H795        H  0.24854809  0.02086192  0.32800939     0.18800
H796        H  0.30179845  0.06165138  0.42477904     0.18800
C797        C  0.81802414  0.05775888  0.71298488    -0.07100
C798        C  0.85070753  0.06434747  0.72905501    -0.18200
C799        C  0.85147538  0.06578877  0.76113653     0.10100
C800        C  0.81901996  0.05954414  0.77805789    -0.07000
C801        C  0.78624812  0.05342470  0.76200554    -0.18200
C802        C  0.78543545  0.05210165  0.72993805     0.10200
S803        S  0.89433254  0.07732920  0.77888728    -0.33200
S804        S  0.74232668  0.04115185  0.71237474    -0.33200
H805        H  0.75827768  0.02241468  0.68950519     0.28200
H806        H  0.87798953  0.09549765  0.80211726     0.28200
H807        H  0.87576818  0.06928546  0.71646879     0.18800
H808        H  0.76120300  0.04841509  0.77458009     0.18800
C809        C  0.96105762  0.08085964  0.62575341    -0.07100
C810        C  0.97887740  0.05476429  0.63898898    -0.18200
C811        C  0.01739327  0.05256410  0.64013481     0.10100
C812        C  0.03922659  0.07700671  0.62735367    -0.07000
C813        C  0.02150157  0.10450067  0.61717778    -0.18200
C814        C  0.98306988  0.10693863  0.61669522     0.10200
S815        S  0.03769868  0.01821454  0.65784379    -0.33200
S816        S  0.96448623  0.14355831  0.60293965    -0.33200
H817        H  0.93987819  0.14658287  0.62762138     0.28200
H818        H  0.00484100  0.00175154  0.66401022     0.28200
H819        H  0.96251116  0.03527169  0.64748672     0.18800
H820        H  0.03761193  0.12399373  0.60824724     0.18800
C821        C  0.76505901  0.11084629  0.52175693    -0.07100
C822        C  0.74206549  0.13705541  0.52524017    -0.18200
C823        C  0.72660392  0.15198340  0.49976712     0.10100
C824        C  0.73437863  0.14038383  0.47012914    -0.07000
C825        C  0.75775735  0.11443701  0.46668321    -0.18200
C826        C  0.77276708  0.09927016  0.49214444     0.10200
S827        S  0.69826543  0.18646209  0.50536119    -0.33200
S828        S  0.79954175  0.06392433  0.48660928    -0.33200
H829        H  0.79979567  0.06431744  0.45441002     0.28200
H830        H  0.70050966  0.18747791  0.53749964     0.28200
H831        H  0.73721125  0.14643583  0.54794070     0.18800
H832        H  0.76260211  0.10495133  0.44402320     0.18800
C833        C  0.75115500  0.23422583  0.61556878    -0.07100
C834        C  0.77213947  0.22713622  0.58949940    -0.18200
C835        C  0.79551618  0.20074734  0.58863941     0.10100
C836        C  0.79793046  0.18034892  0.61441552    -0.07000
C837        C  0.77871528  0.18901679  0.64108907    -0.18200
C838        C  0.75590937  0.21554080  0.64201521     0.10200
S839        S  0.81916539  0.19345602  0.55316617    -0.33200
S840        S  0.73367304  0.22427101  0.67784962    -0.33200
H841        H  0.73626267  0.25718141  0.67470473     0.28200
H842        H  0.85372145  0.19058033  0.56740587     0.28200
H843        H  0.76941842  0.24170284  0.56926147     0.18800
H844        H  0.78047187  0.17435736  0.66133606     0.18800
C845        C  0.74347836  0.48463175  0.61682667    -0.07100
C846        C  0.74082749  0.46682402  0.64381385    -0.18200
C847        C  0.71783814  0.44027730  0.64577629     0.10100
C848        C  0.69849527  0.42965950  0.61953353    -0.07000
C849        C  0.69923708  0.44877205  0.59312021    -0.18200
C850        C  0.72136066  0.47602142  0.59150730     0.10200
S851        S  0.71415974  0.42129307  0.68258455    -0.33200
S852        S  0.72229885  0.49723231  0.55572758    -0.33200
H853        H  0.76158776  0.00485573  0.55606850     0.28200
H854        H  0.67759672  0.41110289  0.67827457     0.28200
H855        H  0.75676112  0.47371976  0.66370466     0.18800
H856        H  0.68461397  0.44130217  0.57272722     0.18800
C857        C  0.81441176  0.43780620  0.27890009    -0.07100
C858        C  0.78068788  0.44155161  0.26357714    -0.18200
C859        C  0.77879535  0.44280064  0.23148991     0.10100
C860        C  0.81131493  0.43958844  0.21389869    -0.07000
C861        C  0.84477631  0.43498810  0.22928470    -0.18200
C862        C  0.84661827  0.43346036  0.26120944     0.10200
S863        S  0.73440403  0.45044029  0.21476367    -0.33200
S864        S  0.89072982  0.42398624  0.27757808    -0.33200
H865        H  0.87637347  0.40451672  0.30079913     0.28200
H866        H  0.74790926  0.47165983  0.19271859     0.28200
H867        H  0.75569742  0.44473245  0.27668519     0.18800
H868        H  0.86981777  0.43164498  0.21624571     0.18800
C869        C  0.95929099  0.41905494  0.36104302    -0.07100
C870        C  0.97774230  0.39151466  0.37012546    -0.18200
C871        C  0.01627369  0.38978256  0.37041015     0.10100
C872        C  0.03761790  0.41658591  0.36214018    -0.07000
C873        C  0.01906997  0.44282140  0.35002198    -0.18200
C874        C  0.98063157  0.44426324  0.34898817     0.10200
S875        S  0.03582365  0.35319972  0.38332718    -0.33200
S876        S  0.96125621  0.47963764  0.33287918    -0.33200
H877        H  0.93155901  0.46411964  0.31876281     0.28200
H878        H  0.06037371  0.35115646  0.35850783     0.28200
H879        H  0.96214989  0.37149218  0.37857428     0.18800
H880        H  0.03459796  0.46316706  0.34223041     0.18800
C881        C  0.87980283  0.48112217  0.46623395    -0.07100
C882        C  0.87324008  0.46310239  0.49267311    -0.18200
C883        C  0.87274408  0.47682582  0.52194025     0.10100
C884        C  0.88112854  0.01211433  0.52453983    -0.07000
C885        C  0.88513862  0.02998699  0.49754820    -0.18200
C886        C  0.88541051  0.01583545  0.46849513     0.10200
S887        S  0.86357971  0.45068367  0.55355346    -0.33200
S888        S  0.89136938  0.04143888  0.43592865    -0.33200
H889        H  0.91220537  0.01975667  0.41888408     0.28200
H890        H  0.89186643  0.46332770  0.57193016     0.28200
H891        H  0.86713865  0.43815259  0.49046010     0.18800
H892        H  0.88687161  0.05546762  0.49886969     0.18800
C893        C  0.73185485  0.36410837  0.52385511    -0.07100
C894        C  0.77005936  0.36087716  0.52212661    -0.18200
C895        C  0.78969011  0.37123785  0.49643037     0.10100
C896        C  0.77032418  0.38493861  0.47141250    -0.07000
C897        C  0.73221859  0.38873186  0.47361553    -0.18200
C898        C  0.71299320  0.37930272  0.49959276     0.10200
S899        S  0.83895373  0.36494742  0.49605590    -0.33200
S900        S  0.66476029  0.38909180  0.50053740    -0.33200
H901        H  0.66579648  0.40021222  0.53087927     0.28200
H902        H  0.84301384  0.35719641  0.52717408     0.28200
H903        H  0.78447477  0.34944271  0.54071038     0.18800
H904        H  0.71719346  0.39991135  0.45518074     0.18800
C905        C  0.74104249  0.01041264  0.37823149    -0.07100
C906        C  0.72439744  0.01984320  0.40564702    -0.18200
C907        C  0.70369467  0.04778494  0.40725729     0.10100
C908        C  0.69873481  0.06633540  0.38045694    -0.07000
C909        C  0.71340358  0.05533786  0.35270406    -0.18200
C910        C  0.73425581  0.02781063  0.35132356     0.10200
S911        S  0.68691084  0.06042190  0.44423143    -0.33200
S912        S  0.75213670  0.01632266  0.31452302    -0.33200
H913        H  0.75016099  0.48480279  0.31877022     0.28200
H914        H  0.70720175  0.03906209  0.46206177     0.28200
H915        H  0.72943091  0.00622472  0.42616601     0.18800
H916        H  0.70975877  0.06896022  0.33195444     0.18800
C917        C  0.79709199  0.31685869  0.37164125    -0.07100
C918        C  0.77424879  0.30993022  0.34638067    -0.18200
C919        C  0.75157353  0.28312110  0.34564175     0.10100
C920        C  0.75108977  0.26220048  0.37078481    -0.07000
C921        C  0.77570029  0.26762244  0.39504236    -0.18200
C922        C  0.79860269  0.29445803  0.39578224     0.10200
S923        S  0.72371756  0.27714217  0.31190953    -0.33200
S924        S  0.82647373  0.29977751  0.42948611    -0.33200
H925        H  0.85895527  0.30484493  0.41264397     0.28200
H926        H  0.72673425  0.24410690  0.31197649     0.28200
H927        H  0.77285178  0.32626081  0.32735553     0.18800
H928        H  0.77604952  0.25145414  0.41423943     0.18800
Fe929      Fe  0.85035164  0.96678857  0.37013974     1.65800
Fe930      Fe  0.86062235  0.90001112  0.40957482     1.73200
Fe931      Fe  0.78040725  0.91501407  0.37361225     1.54400
O932        O  0.75837290  0.95737277  0.38788934    -0.82600
O933        O  0.83696451  0.85760651  0.39344426    -0.80900
O934        O  0.80011199  0.98994960  0.36841048    -0.85100
O935        O  0.84323805  0.95257482  0.32550547    -0.80000
O936        O  0.77037610  0.89663287  0.41757160    -0.81800
O937        O  0.90093095  0.89873999  0.37642235    -0.84500
C938        C  0.81471283  0.94073648  0.31286287     0.96300
C939        C  0.76797550  0.98440879  0.37846794     1.03700
O940        O  0.83013490  0.92711401  0.38439000    -1.13500
O941        O  0.88559459  0.93847823  0.43200953    -0.75900
O942        O  0.85665358  0.98112927  0.41497130    -0.79400
O943        O  0.78696447  0.93095627  0.32830805    -0.80100
C944        C  0.87447771  0.96676878  0.43574723     0.95200
O945        O  0.90441750  0.95027273  0.36915842    -0.78000
O946        O  0.82300649  0.90025975  0.44360905    -0.83200
C947        C  0.81240680  0.85069377  0.37366801     0.97800
C948        C  0.78907448  0.89396767  0.44230317     1.03700
O949        O  0.79698899  0.87198319  0.35812633    -0.78900
C950        C  0.91899646  0.92307820  0.36837338     1.02000
Fe951      Fe  0.85217058  0.53116457  0.62155124     1.65800
Fe952      Fe  0.85925060  0.59530638  0.57708823     1.73200
Fe953      Fe  0.78162512  0.58208595  0.61808965     1.54400
O954        O  0.75896067  0.53847884  0.60769061    -0.82600
O955        O  0.83639308  0.63847674  0.59127879    -0.80900
O956        O  0.80251765  0.50675399  0.62514356    -0.85100
O957        O  0.84662709  0.54682190  0.66603658    -0.80000
O958        O  0.76821990  0.59720071  0.57392549    -0.81800
O959        O  0.90263506  0.59963609  0.60743722    -0.84500
C960        C  0.81827816  0.55837327  0.67891033     0.96300
C961        C  0.76977303  0.51151994  0.61621958     1.03700
O962        O  0.83087085  0.56981216  0.60589242    -1.13500
O963        O  0.88371938  0.55607899  0.55642004    -0.75900
O964        O  0.85697558  0.51425263  0.57724991    -0.79400
O965        O  0.79097469  0.56906359  0.66372296    -0.80100
C966        C  0.87320196  0.52737731  0.55483676     0.95200
O967        O  0.90565055  0.54935458  0.62090138    -0.78000
O968        O  0.81866090  0.59194238  0.54517580    -0.83200
C969        C  0.81302980  0.64685976  0.61141351     0.97800
C970        C  0.78479771  0.59802039  0.54816158     1.03700
O971        O  0.79849591  0.62691354  0.62936730    -0.78900
C972        C  0.92060138  0.57647225  0.61806783     1.02000
Fe973      Fe  0.14472094  0.96745367  0.36926778     1.65800
Fe974      Fe  0.13811418  0.90133115  0.41061037     1.73200
Fe975      Fe  0.21616897  0.91724626  0.37159914     1.54400
O976        O  0.20716288  0.93183429  0.32622554    -0.82600
O977        O  0.17774788  0.90437364  0.44338384    -0.80900
O978        O  0.15128954  0.95390004  0.32430778    -0.85100
O979        O  0.19388296  0.99248817  0.36696198    -0.80000
O980        O  0.20053051  0.87277314  0.35840562    -0.81800
O981        O  0.11206430  0.93905203  0.43199402    -0.84500
C982        C  0.22644638  0.98760646  0.37615222     0.96300
C983        C  0.17968669  0.94260993  0.31124232     1.03700
O984        O  0.16652425  0.92839605  0.38340944    -1.13500
O985        O  0.09605437  0.89759905  0.37912525    -0.75900
O986        O  0.09154834  0.94857055  0.36880723    -0.79400
O987        O  0.23753537  0.96056730  0.38398739    -0.80100
C988        C  0.07739792  0.92100950  0.37000385     0.95200
O989        O  0.13924703  0.98207234  0.41428098    -0.78000
O990        O  0.16203481  0.85932357  0.39531611    -0.83200
C991        C  0.21194433  0.89924846  0.44113914     0.97800
C992        C  0.18558661  0.85191875  0.37507361     1.03700
O993        O  0.22907906  0.90083225  0.41563291    -0.78900
C994        C  0.12340544  0.96715651  0.43588200     1.02000
Fe995      Fe  0.14806145  0.52857171  0.62039654     1.65800
Fe996      Fe  0.13997784  0.59601498  0.58136026     1.73200
Fe997      Fe  0.21809335  0.58147826  0.62098556     1.54400
O998        O  0.20767002  0.56650204  0.66598044    -0.82600
O999        O  0.18010887  0.59609522  0.54930144    -0.80900
O1000       O  0.15346625  0.54106014  0.66582341    -0.85100
O1001       O  0.19787094  0.50484301  0.62227095    -0.80000
O1002       O  0.20123213  0.62555546  0.63424459    -0.81800
O1003       O  0.11582986  0.55815816  0.55804596    -0.84500
C1004       C  0.23079434  0.51120873  0.61482209     0.96300
C1005       C  0.18000079  0.55443969  0.67995122     1.03700
O1006       O  0.16909254  0.56883121  0.60778073    -1.13500
O1007       O  0.09762079  0.59721858  0.61258135    -0.75900
O1008       O  0.09417669  0.54574991  0.62066975    -0.79400
O1009       O  0.24161898  0.53898306  0.60908388    -0.80100
C1010       C  0.07941562  0.57292217  0.62053134     0.95200
O1011       O  0.14325585  0.51500516  0.57501111    -0.78000
O1012       O  0.16180361  0.63838685  0.59795980    -0.83200
C1013       C  0.21428370  0.60123291  0.55196733     0.97800
C1014       C  0.18538462  0.64620099  0.61806885     1.03700
O1015       O  0.23169680  0.59849027  0.57727991    -0.78900
C1016       C  0.12720537  0.53018561  0.55379822     1.02000
Fe1017     Fe  0.35294478  0.71655270  0.37070731     1.65800
Fe1018     Fe  0.35816286  0.65148597  0.41337408     1.73200
Fe1019     Fe  0.28021814  0.66724494  0.37415322     1.54400
O1020       O  0.25958133  0.71106415  0.38538718    -0.82600
O1021       O  0.33413284  0.60943128  0.39835454    -0.80900
O1022       O  0.30402256  0.74165374  0.36710930    -0.85100
O1023       O  0.34654982  0.70148319  0.32634816    -0.80000
O1024       O  0.26704905  0.65153478  0.41842130    -0.81800
O1025       O  0.39948496  0.64677521  0.38183804    -0.84500
C1026       C  0.31736543  0.69121199  0.31347861     0.96300
C1027       C  0.27087864  0.73744600  0.37544612     1.03700
O1028       O  0.33012856  0.67818345  0.38585584    -1.13500
O1029       O  0.38453608  0.68974601  0.43433605    -0.75900
O1030       O  0.35819468  0.73240234  0.41508354    -0.79400
O1031       O  0.28964520  0.68129667  0.32878103    -0.80100
C1032       C  0.37436575  0.71833576  0.43688096     0.95200
O1033       O  0.40612399  0.69761142  0.37125630    -0.78000
O1034       O  0.31885075  0.65473691  0.44601031    -0.83200
C1035       C  0.31082989  0.60187438  0.37785669     0.97800
C1036       C  0.28463805  0.64958451  0.44371488     1.03700
O1037       O  0.29483384  0.62235248  0.36158814    -0.78900
C1038       C  0.41895096  0.66972869  0.37255307     1.02000
Fe1039     Fe  0.35171820  0.78204237  0.62171938     1.65800
Fe1040     Fe  0.35817958  0.84635112  0.57801143     1.73200
Fe1041     Fe  0.28070059  0.83256843  0.61877135     1.54400
O1042       O  0.25782094  0.78895969  0.60819565    -0.82600
O1043       O  0.33529257  0.88873351  0.59215106    -0.80900
O1044       O  0.30203568  0.75772276  0.62535366    -0.85100
O1045       O  0.34598494  0.79759960  0.66616270    -0.80000
O1046       O  0.26756149  0.84868183  0.57465753    -0.81800
O1047       O  0.40042159  0.85122869  0.60903059    -0.84500
C1048       C  0.31741349  0.80850201  0.67928487     0.96300
C1049       C  0.26875318  0.76234228  0.61773657     1.03700
O1050       O  0.32989975  0.82046600  0.60636109    -1.13500
O1051       O  0.38380037  0.80789467  0.55779446    -0.75900
O1052       O  0.35668016  0.76550937  0.57732808    -0.79400
O1053       O  0.28975068  0.81845175  0.66411984    -0.80100
C1054       C  0.37321887  0.77936472  0.55547220     0.95200
O1055       O  0.40528441  0.80054911  0.62102529    -0.78000
O1056       O  0.31779034  0.84264705  0.54584483    -0.83200
C1057       C  0.31325728  0.89699348  0.61317765     0.97800
C1058       C  0.28406550  0.84952012  0.54881848     1.03700
O1059       O  0.29810290  0.87715284  0.63086579    -0.78900
C1060       C  0.41909573  0.82817026  0.61895649     1.02000
Fe1061     Fe  0.64244249  0.71448024  0.36967243     1.65800
Fe1062     Fe  0.63908233  0.65063015  0.41454445     1.73200
Fe1063     Fe  0.71533498  0.66573467  0.37239909     1.54400
O1064       O  0.70412925  0.67749709  0.32670770    -0.82600
O1065       O  0.68005267  0.65555980  0.44594666    -0.80900
O1066       O  0.64782128  0.69866492  0.32532678    -0.85100
O1067       O  0.69097788  0.74049335  0.36536288    -0.80000
O1068       O  0.70055528  0.62012073  0.36227207    -0.81800
O1069       O  0.61292862  0.68892625  0.43509735    -0.84500
C1070       C  0.72450250  0.73654851  0.37259540     0.96300
C1071       C  0.67576993  0.68693778  0.31204687     1.03700
O1072       O  0.66587093  0.67671674  0.38526964    -1.13500
O1073       O  0.59614008  0.64443212  0.38447021    -0.75900
O1074       O  0.58971562  0.69452705  0.37115468    -0.79400
O1075       O  0.73646065  0.71007709  0.38140248    -0.80100
C1076       C  0.57654497  0.66680798  0.37447869     0.95200
O1077       O  0.63754847  0.73142215  0.41379113    -0.78000
O1078       O  0.66287416  0.60834659  0.40045834    -0.83200
C1079       C  0.71418603  0.65079705  0.44261386     0.97800
C1080       C  0.68617013  0.60019741  0.38031825     1.03700
O1081       O  0.73035639  0.65203928  0.41666732    -0.78900
C1082       C  0.62187901  0.71797964  0.43627256     1.02000
Fe1083     Fe  0.64330860  0.78058594  0.62003165     1.65800
Fe1084     Fe  0.63966334  0.84683930  0.57892284     1.73200
Fe1085     Fe  0.71560793  0.83103298  0.62006885     1.54400
O1086       O  0.70476995  0.81543761  0.66492674    -0.82600
O1087       O  0.68020883  0.84255462  0.54754307    -0.80900
O1088       O  0.64841908  0.79375507  0.66498089    -0.85100
O1089       O  0.69288764  0.75533326  0.62287027    -0.80000
O1090       O  0.69963449  0.87527802  0.63353949    -0.81800
O1091       O  0.61296898  0.80958194  0.55677422    -0.84500
C1092       C  0.72610217  0.76061593  0.61491011     0.96300
C1093       C  0.67669663  0.80411748  0.67894138     1.03700
O1094       O  0.66637933  0.81963133  0.60671970    -1.13500
O1095       O  0.59733400  0.85130155  0.60949770    -0.75900
O1096       O  0.59012692  0.80030567  0.61953800    -0.79400
O1097       O  0.73733293  0.78792187  0.60757026    -0.80100
C1098       C  0.57725308  0.82826008  0.61762589     0.95200
O1099       O  0.63818739  0.76598630  0.57515648    -0.78000
O1100       O  0.66400503  0.88880301  0.59471777    -0.83200
C1101       C  0.71352573  0.85042436  0.55085209     0.97800
C1102       C  0.68600809  0.89616281  0.61629356     1.03700
O1103       O  0.73006315  0.84886222  0.57668723    -0.78900
C1104       C  0.62210557  0.78082215  0.55380064     1.02000
Fe1105     Fe  0.84812267  0.96579010  0.12228256     1.65800
Fe1106     Fe  0.85616142  0.89968862  0.08079633     1.73200
Fe1107     Fe  0.77682782  0.91495107  0.11881997     1.54400
O1108       O  0.78484234  0.92962551  0.16435888    -0.82600
O1109       O  0.81678051  0.90052756  0.04775692    -0.80900
O1110       O  0.84092682  0.95165985  0.16691636    -0.85100
O1111       O  0.79870665  0.99003460  0.12436865    -0.80000
O1112       O  0.79210233  0.87064430  0.13205030    -0.81800
O1113       O  0.88077075  0.93816107  0.05846998    -0.84500
C1114       C  0.76616012  0.98507747  0.11496712     0.96300
C1115       C  0.81207023  0.94061998  0.17968510     1.03700
O1116       O  0.82682482  0.92650326  0.10754294    -1.13500
O1117       O  0.89833422  0.89726175  0.11241558    -0.75900
O1118       O  0.90172580  0.94822698  0.12314748    -0.79400
O1119       O  0.75531686  0.95806253  0.10640829    -0.80100
C1120       C  0.91625507  0.92101019  0.12224753     0.95200
O1121       O  0.85427776  0.98089988  0.07767840    -0.78000
O1122       O  0.83346199  0.85729200  0.09704566    -0.83200
C1123       C  0.78243879  0.89573812  0.04968054     0.97800
C1124       C  0.80914955  0.84993288  0.11684176     1.03700
O1125       O  0.76473096  0.89833861  0.07478853    -0.78900
C1126       C  0.87071757  0.96683713  0.05597508     1.02000
Fe1127     Fe  0.85031992  0.53214031  0.86988379     1.65800
Fe1128     Fe  0.85503629  0.59669005  0.91386956     1.73200
Fe1129     Fe  0.77878948  0.58215433  0.87171249     1.54400
O1130       O  0.78960385  0.56891130  0.82635946    -0.82600
O1131       O  0.81388316  0.59321060  0.94527192    -0.80900
O1132       O  0.84598894  0.54793919  0.82540428    -0.85100
O1133       O  0.80085897  0.50740590  0.86511652    -0.80000
O1134       O  0.79569699  0.62661679  0.86013069    -0.81800
O1135       O  0.87961108  0.55809733  0.93520167    -0.84500
C1136       C  0.76755358  0.51192181  0.87275246     0.96300
C1137       C  0.81817198  0.55966409  0.81189864     1.03700
O1138       O  0.82778360  0.57047920  0.88500390    -1.13500
O1139       O  0.89830163  0.60128901  0.88382656    -0.75900
O1140       O  0.90377836  0.55080448  0.87170143    -0.79400
O1141       O  0.75637576  0.53855764  0.88187649    -0.80100
C1142       C  0.91751856  0.57842417  0.87433457     0.95200
O1143       O  0.85402725  0.51558999  0.91436166    -0.78000
O1144       O  0.83236399  0.63921221  0.89870143    -0.83200
C1145       C  0.77992360  0.59857444  0.94166068     0.97800
C1146       C  0.80983756  0.64702257  0.87778826     1.03700
O1147       O  0.76393033  0.59765959  0.91561005    -0.78900
C1148       C  0.86918006  0.52941508  0.93698215     1.02000
Fe1149     Fe  0.14056149  0.96813643  0.12120589     1.65800
Fe1150     Fe  0.13511104  0.90033575  0.08152961     1.73200
Fe1151     Fe  0.21444295  0.92058286  0.11767087     1.54400
O1152       O  0.23334405  0.96438476  0.10412270    -0.82600
O1153       O  0.15935263  0.85975021  0.09942540    -0.80900
O1154       O  0.18908988  0.99461770  0.12264746    -0.85100
O1155       O  0.14921703  0.95536688  0.16601651    -0.80000
O1156       O  0.22664808  0.90329483  0.07386432    -0.81800
O1157       O  0.09354521  0.89747595  0.11338705    -0.84500
C1158       C  0.17899726  0.94611704  0.17842707     0.96300
C1159       C  0.22185184  0.99085343  0.11332910     1.03700
O1160       O  0.16361471  0.92943760  0.10694660    -1.13500
O1161       O  0.10894627  0.93688065  0.05820233    -0.75900
O1162       O  0.13261610  0.98179832  0.07629960    -0.79400
O1163       O  0.20638431  0.93596163  0.16293131    -0.80100
C1164       C  0.11716884  0.96597321  0.05505164     0.95200
O1165       O  0.08767484  0.94835742  0.12307695    -0.78000
O1166       O  0.17379226  0.90088589  0.04786713    -0.83200
C1167       C  0.18480718  0.85408777  0.11866984     0.97800
C1168       C  0.20843549  0.89830658  0.04927913     1.03700
O1169       O  0.20221722  0.87595133  0.13218129    -0.78900
C1170       C  0.07431744  0.92050651  0.12234837     1.02000
Fe1171     Fe  0.14253717  0.53031237  0.87084700     1.65800
Fe1172     Fe  0.13613694  0.59478647  0.91468760     1.73200
Fe1173     Fe  0.21405466  0.58076634  0.87496062     1.54400
O1174       O  0.23597831  0.53748596  0.88588889    -0.82600
O1175       O  0.15990509  0.63741376  0.90033309    -0.80900
O1176       O  0.19198982  0.50618476  0.86778534    -0.85100
O1177       O  0.14916282  0.54562045  0.82636196    -0.80000
O1178       O  0.22682655  0.59652786  0.91937384    -0.81800
O1179       O  0.09439794  0.59918007  0.88310831    -0.84500
C1180       C  0.17814219  0.55655842  0.81368541     0.96300
C1181       C  0.22509516  0.51096069  0.87597043     1.03700
O1182       O  0.16451462  0.56876781  0.88668303    -1.13500
O1183       O  0.11034131  0.55593352  0.93524330    -0.75900
O1184       O  0.13676163  0.51386895  0.91501349    -0.79400
O1185       O  0.20539052  0.56691403  0.82933062    -0.80100
C1186       C  0.12040225  0.52723603  0.93713229     0.95200
O1187       O  0.08915348  0.54852441  0.87109030    -0.78000
O1188       O  0.17572484  0.59171231  0.94747545    -0.83200
C1189       C  0.18311562  0.64536876  0.87994630     0.97800
C1190       C  0.20980430  0.59749595  0.94499414     1.03700
O1191       O  0.19770789  0.62503100  0.86263822    -0.78900
C1192       C  0.07560243  0.57610052  0.87292356     1.02000
Fe1193     Fe  0.35073260  0.71885746  0.12202915     1.65800
Fe1194     Fe  0.35471023  0.65267355  0.08077428     1.73200
Fe1195     Fe  0.27773081  0.66976470  0.12105335     1.54400
O1196       O  0.28824551  0.68526833  0.16591203    -0.82600
O1197       O  0.31391450  0.65470548  0.04879217    -0.80900
O1198       O  0.34552127  0.70477721  0.16669149    -0.85100
O1199       O  0.30208565  0.74424955  0.12568528    -0.80000
O1200       O  0.29235210  0.62524642  0.13448020    -0.81800
O1201       O  0.38038555  0.69028105  0.05812639    -0.84500
C1202       C  0.26903820  0.73995099  0.11712782     0.96300
C1203       C  0.31658022  0.69546426  0.18036906     1.03700
O1204       O  0.32743966  0.68018313  0.10811476    -1.13500
O1205       O  0.39768228  0.64894266  0.11145062    -0.75900
O1206       O  0.40360146  0.69994200  0.12117441    -0.79400
O1207       O  0.25723753  0.71316518  0.10873678    -0.80100
C1208       C  0.41689009  0.67226517  0.12049884     0.95200
O1209       O  0.35552370  0.73369816  0.07737129    -0.78000
O1210       O  0.33092969  0.61133591  0.09756370    -0.83200
C1211       C  0.27960378  0.65021443  0.05188793     0.97800
C1212       C  0.30747041  0.60435280  0.11811270     1.03700
O1213       O  0.26307040  0.65268795  0.07759281    -0.78900
C1214       C  0.37159427  0.71925001  0.05574459     1.02000
Fe1215     Fe  0.34997126  0.78072736  0.87160200     1.65800
Fe1216     Fe  0.35579408  0.84698150  0.91280316     1.73200
Fe1217     Fe  0.27861804  0.83074359  0.87235527     1.54400
O1218       O  0.28858316  0.81542518  0.82731707    -0.82600
O1219       O  0.31534175  0.84442308  0.94480456    -0.80900
O1220       O  0.34487732  0.79460894  0.82675535    -0.91500
O1221       O  0.30069356  0.75574455  0.86831349    -0.80000
O1222       O  0.29538090  0.87493253  0.85907382    -0.81800
O1223       O  0.38126797  0.80929015  0.93494299    -0.84500
C1224       C  0.26760736  0.76059855  0.87624734     0.96300
C1225       C  0.31646122  0.80458369  0.81289354     1.03700
O1226       O  0.32782138  0.81963830  0.88544025    -1.13500
O1227       O  0.39843037  0.85061783  0.88180336    -0.75900
O1228       O  0.40310317  0.79942319  0.87226775    -0.79400
O1229       O  0.25647030  0.78756841  0.88439155    -0.80100
C1230       C  0.41695841  0.82704354  0.87276360     0.95200
O1231       O  0.35477181  0.76600282  0.91636634    -0.78000
O1232       O  0.33236400  0.88884719  0.89694167    -0.83200
C1233       C  0.28123693  0.84964910  0.94174022     0.97800
C1234       C  0.30973702  0.89601292  0.87592454     1.03700
O1235       O  0.26455041  0.84763807  0.91601732    -0.78900
C1236       C  0.37149768  0.78052867  0.93773441     1.02000
Fe1237     Fe  0.64191242  0.71468616  0.12096001     1.65800
Fe1238     Fe  0.63615333  0.64877447  0.07882444     1.73200
Fe1239     Fe  0.71378630  0.66491060  0.11893731     1.54400
O1240       O  0.73546301  0.70839550  0.10720555    -0.82600
O1241       O  0.65932742  0.60692038  0.09468107    -0.80900
O1242       O  0.69118595  0.74003252  0.12357283    -0.85100
O1243       O  0.64824153  0.70072003  0.16592820    -0.80000
O1244       O  0.72748513  0.64850460  0.07522899    -0.81800
O1245       O  0.59344078  0.64471934  0.10959102    -0.84500
C1246       C  0.67673324  0.68972765  0.17908446     0.96300
C1247       C  0.72417520  0.73538398  0.11515864     1.03700
O1248       O  0.66415377  0.67590439  0.10651225    -1.13500
O1249       O  0.61038875  0.68636488  0.05718648    -0.75900
O1250       O  0.63604813  0.72969350  0.07602680    -0.79400
O1251       O  0.70430949  0.67920378  0.16416365    -0.80100
C1252       C  0.62052683  0.71487957  0.05411286     0.95200
O1253       O  0.58884894  0.69540817  0.12123696    -0.78000
O1254       O  0.67658057  0.65169125  0.04653826    -0.83200
C1255       C  0.68225268  0.59968368  0.11549959     0.97800
C1256       C  0.71074824  0.64682656  0.04957152     1.03700
O1257       O  0.69804702  0.62044413  0.13174613    -0.78900
C1258       C  0.57481530  0.66782181  0.11942027     1.02000
Fe1259     Fe  0.64138894  0.77989842  0.87035258     1.65800
Fe1260     Fe  0.63709311  0.84592598  0.91177421     1.73200
Fe1261     Fe  0.71331415  0.83046533  0.87103746     1.54400
O1262       O  0.73507523  0.78745212  0.88289306    -0.82600
O1263       O  0.66137341  0.88789934  0.89644707    -0.80900
O1264       O  0.69074147  0.75518396  0.86677735    -0.85100
O1265       O  0.64645968  0.79364107  0.82526627    -0.80000
O1266       O  0.72775440  0.84744647  0.91470305    -0.81800
O1267       O  0.59513219  0.85018724  0.88067830    -0.84500
C1268       C  0.67455446  0.80514143  0.81173198     0.96300
C1269       C  0.72394695  0.76043665  0.87457052     1.03700
O1270       O  0.66422261  0.81885435  0.88411299    -1.13500
O1271       O  0.61056914  0.80823398  0.93343425    -0.75900
O1272       O  0.63698980  0.76512086  0.91541601    -0.79400
O1273       O  0.70272035  0.81557469  0.82617153    -0.80100
C1274       C  0.62143858  0.78003693  0.93710117     0.95200
O1275       O  0.58825548  0.79905503  0.87150129    -0.78000
O1276       O  0.67736944  0.84227943  0.94352776    -0.83200
C1277       C  0.68330493  0.89533996  0.87497844     0.97800
C1278       C  0.71124693  0.84853543  0.94052709     1.03700
O1279       O  0.69682037  0.87443705  0.85772196    -0.78900
C1280       C  0.57512191  0.82689662  0.87307536     1.02000
C1281       C  0.61602157  0.76420338  0.96731874    -0.07100
C1282       C  0.61302805  0.73120879  0.96814517    -0.18200
C1283       C  0.61169110  0.71462127  0.99585451     0.10100
C1284       C  0.61474220  0.73112180  0.02409887    -0.07000
C1285       C  0.61619454  0.76421896  0.02327135    -0.18200
C1286       C  0.61664447  0.78094200  0.99549381     0.10200
S1287       S  0.60838530  0.67230938  0.99300595    -0.33200
S1288       S  0.62049539  0.82348247  0.99691990    -0.33200
H1289       H  0.62411134  0.82665344  0.02882901     0.28200
H1290       H  0.57536466  0.67095463  0.00977617     0.28200
H1291       H  0.61211212  0.71804464  0.94687664     0.18800
H1292       H  0.61795227  0.77709025  0.04462778     0.18800
C1293       C  0.45682938  0.83095499  0.86571269    -0.07100
C1294       C  0.47610384  0.85615237  0.87929291    -0.18200
C1295       C  0.51461584  0.85651479  0.88077865     0.10100
C1296       C  0.53494986  0.83131805  0.86780105    -0.07000
C1297       C  0.51565673  0.80783160  0.85158599    -0.18200
C1298       C  0.47720998  0.80760130  0.84999711     0.10200
S1299       S  0.53532333  0.88830524  0.90223814    -0.33200
S1300       S  0.45610291  0.77661069  0.82766513    -0.33200
H1301       H  0.42709527  0.79555351  0.81707598     0.28200
H1302       H  0.55249543  0.86792280  0.92319968     0.28200
H1303       H  0.46111732  0.87453846  0.89108014     0.18800
H1304       H  0.53060792  0.78895407  0.84051715     0.18800
C1305       C  0.45674559  0.66775586  0.12761329    -0.07100
C1306       C  0.47454568  0.64076383  0.11634216    -0.18200
C1307       C  0.51300069  0.63825317  0.11643002     0.10100
C1308       C  0.53483718  0.66391999  0.12692735    -0.07000
C1309       C  0.51686907  0.68915496  0.14146199    -0.18200
C1310       C  0.47834415  0.69117709  0.14240118     0.10200
S1311       S  0.53191978  0.60229782  0.10133318    -0.33200
S1312       S  0.45762589  0.72396264  0.16246466    -0.33200
H1313       H  0.49037135  0.73836073  0.17265037     0.28200
H1314       H  0.55591336  0.59810102  0.12629086     0.28200
H1315       H  0.45852685  0.62189003  0.10608668     0.18800
H1316       H  0.53314346  0.70816205  0.15111521     0.18800
C1317       C  0.37830988  0.76442228  0.96743340    -0.07100
C1318       C  0.37845632  0.78281944  0.99424771    -0.18200
C1319       C  0.37901486  0.76904430  0.02335979     0.10100
C1320       C  0.37864909  0.73577648  0.02620007    -0.07000
C1321       C  0.38135123  0.71750280  0.99938220    -0.18200
C1322       C  0.38135851  0.73131629  0.97026568     0.10200
S1323       S  0.38015058  0.79545634  0.05571801    -0.33200
S1324       S  0.38501159  0.70521628  0.93782408    -0.33200
H1325       H  0.40720910  0.72588105  0.92057695     0.28200
H1326       H  0.40445703  0.77673017  0.07287528     0.28200
H1327       H  0.37688144  0.80827835  0.99263874     0.18800
H1328       H  0.38197484  0.69201077  0.00092096     0.18800
C1329       C  0.25078863  0.98367494  0.87331121    -0.07100
C1330       C  0.27873743  0.97976093  0.89518773    -0.18200
C1331       C  0.30165541  0.95313559  0.89484474     0.10100
C1332       C  0.29594445  0.92908214  0.87259044    -0.07000
C1333       C  0.27023003  0.93479942  0.84916945    -0.18200
C1334       C  0.24815509  0.96162959  0.84907408     0.10200
S1335       S  0.33664804  0.95122986  0.92397719    -0.33200
S1336       S  0.21724637  0.96614053  0.81707133    -0.33200
H1337       H  0.22232448  0.99891503  0.81487029     0.28200
H1338       H  0.36410041  0.94114266  0.90353511     0.28200
H1339       H  0.28213148  0.99711781  0.91321144     0.18800
H1340       H  0.26611113  0.91759799  0.83111270     0.18800
C1341       C  0.19684780  0.67856333  0.87747433    -0.07100
C1342       C  0.21642849  0.68685791  0.85084236    -0.18200
C1343       C  0.23841076  0.71397534  0.84952398     0.10100
C1344       C  0.24126393  0.73386329  0.87536289    -0.07000
C1345       C  0.21984697  0.72709992  0.90124252    -0.18200
C1346       C  0.19779485  0.69982371  0.90266541     0.10200
S1347       S  0.26266851  0.72154261  0.81425785    -0.33200
S1348       S  0.17459203  0.69238904  0.93834944    -0.33200
H1349       H  0.14005923  0.68824457  0.92428306     0.28200
H1350       H  0.25930078  0.75450412  0.81585114     0.28200
H1351       H  0.21589975  0.67135872  0.83110200     0.18800
H1352       H  0.22160983  0.74242876  0.92107095     0.18800
C1353       C  0.22923554  0.60873239  0.97266417    -0.07100
C1354       C  0.25350453  0.63432989  0.96940670    -0.18200
C1355       C  0.26794788  0.64995366  0.99491494     0.10100
C1356       C  0.25916734  0.63920822  0.02466682    -0.07000
C1357       C  0.23471540  0.61373120  0.02802025    -0.18200
C1358       C  0.21984025  0.59830958  0.00247930     0.10200
S1359       S  0.29581551  0.68447840  0.98785999    -0.33200
S1360       S  0.19029078  0.56478648  0.00964077    -0.33200
H1361       H  0.20090217  0.54785862  0.98340709     0.28200
H1362       H  0.28584170  0.70037261  0.01487246     0.28200
H1363       H  0.25977805  0.64336915  0.94678576     0.18800
H1364       H  0.22848463  0.60478082  0.05068183     0.18800
C1365       C  0.22734503  0.88714878  0.02129929    -0.07100
C1366       C  0.20816309  0.86623504  0.00176472    -0.18200
C1367       C  0.22493701  0.85289199  0.97604357     0.10100
C1368       C  0.26166287  0.86095596  0.96916624    -0.07000
C1369       C  0.28074238  0.88188795  0.98857485    -0.18200
C1370       C  0.26403328  0.89523696  0.01418810     0.10200
S1371       S  0.19871641  0.82461669  0.95405171    -0.33200
S1372       S  0.29046017  0.92369593  0.03562803    -0.33200
H1373       H  0.26027590  0.94351709  0.04072079     0.28200
H1374       H  0.22871527  0.80484273  0.94770515     0.28200
H1375       H  0.18015043  0.85931966  0.00711181     0.18800
H1376       H  0.30875631  0.88880388  0.98318212     0.18800
C1377       C  0.11055432  0.98097830  0.02481818    -0.07100
C1378       C  0.11741474  0.96305755  0.99838855    -0.18200
C1379       C  0.11822319  0.97682401  0.96914186     0.10100
C1380       C  0.11407443  0.50981354  0.96653987    -0.07000
C1381       C  0.10401851  0.52730909  0.99270236    -0.18200
C1382       C  0.10241506  0.51358887  0.02186381     0.10200
S1383       S  0.12693910  0.95161789  0.93648554    -0.33200
S1384       S  0.08873165  0.53835988  0.05337173    -0.33200
H1385       H  0.07085352  0.51417586  0.06974365     0.28200
H1386       H  0.13198761  0.92326202  0.95259135     0.28200
H1387       H  0.12380136  0.93828505  0.00084398     0.18800
H1388       H  0.09832346  0.55227118  0.99073585     0.18800
C1389       C  0.19842746  0.82126959  0.12253223    -0.07100
C1390       C  0.19553091  0.80054330  0.09741085    -0.18200
C1391       C  0.21783335  0.77375340  0.09499422     0.10100
C1392       C  0.24342607  0.76698336  0.11841647    -0.07000
C1393       C  0.24436314  0.78631235  0.14450856    -0.18200
C1394       C  0.22176768  0.81277974  0.14714766     0.10200
S1395       S  0.21458423  0.75092278  0.06023541    -0.33200
S1396       S  0.22429406  0.83469130  0.18253637    -0.33200
H1397       H  0.18754973  0.84493783  0.18156737     0.28200
H1398       H  0.25260616  0.74553349  0.05760437     0.28200
H1399       H  0.17805222  0.80656987  0.07821041     0.18800
H1400       H  0.26282777  0.78063136  0.16318368     0.18800
C1401       C  0.24681295  0.51776293  0.11475835    -0.07100
C1402       C  0.25098908  0.53353072  0.14285434    -0.18200
C1403       C  0.27415189  0.55987882  0.14579299     0.10100
C1404       C  0.29311031  0.57151144  0.11982718    -0.07000
C1405       C  0.29081202  0.55432995  0.09226777    -0.18200
C1406       C  0.26766253  0.52797277  0.08936321     0.10200
S1407       S  0.27823994  0.57749247  0.18326337    -0.33200
S1408       S  0.26737519  0.00931673  0.05282658    -0.33200
H1409       H  0.22972088  0.00167258  0.05422669     0.28200
H1410       H  0.31432664  0.58878815  0.17886328     0.28200
H1411       H  0.23613395  0.52516941  0.16277304     0.18800
H1412       H  0.30466347  0.56299859  0.07196385     0.18800
C1413       C  0.95761728  0.58294040  0.86796071    -0.07100
C1414       C  0.97599516  0.55989979  0.85058379    -0.18200
C1415       C  0.01451288  0.55900504  0.84893490     0.10100
C1416       C  0.03577165  0.58076806  0.86618044    -0.07000
C1417       C  0.01747314  0.60552420  0.88106461    -0.18200
C1418       C  0.97902708  0.60720202  0.88172720     0.10200
S1419       S  0.03461727  0.52952574  0.82442330    -0.33200
S1420       S  0.95964568  0.63962980  0.90277748    -0.33200
H1421       H  0.93788372  0.64956873  0.87796799     0.28200
H1422       H  0.06473495  0.54847399  0.81567864     0.28200
H1423       H  0.96026015  0.54191341  0.83864887     0.18800
H1424       H  0.03312729  0.62299042  0.89376818     0.18800
C1425       C  0.75943156  0.60884316  0.96879362    -0.07100
C1426       C  0.74227815  0.63835582  0.96763494    -0.18200
C1427       C  0.72829675  0.65243216  0.99408730     0.10100
C1428       C  0.73080640  0.63636565  0.02230181    -0.07000
C1429       C  0.74797967  0.60686792  0.02347845    -0.18200
C1430       C  0.76213721  0.59287328  0.99705952     0.10200
S1431       S  0.70922685  0.69145941  0.99051094    -0.33200
S1432       S  0.78224143  0.55425445  0.00078508    -0.33200
H1433       H  0.77513736  0.54439906  0.97059588     0.28200
H1434       H  0.71506502  0.70062010  0.02103873     0.28200
H1435       H  0.74136829  0.65123709  0.94621795     0.18800
H1436       H  0.74904080  0.59404847  0.04492767     0.18800
C1437       C  0.75064517  0.73423611  0.87341972    -0.07100
C1438       C  0.77301009  0.72832255  0.89893106    -0.18200
C1439       C  0.79552848  0.70143683  0.90031366     0.10100
C1440       C  0.79603746  0.68005660  0.87522009    -0.07000
C1441       C  0.77607962  0.68794009  0.84868039    -0.18200
C1442       C  0.75362147  0.71453811  0.84751430     0.10200
S1443       S  0.82126957  0.69425119  0.93503667    -0.33200
S1444       S  0.72922930  0.72189289  0.81227869    -0.33200
H1445       H  0.73206986  0.75491277  0.81413494     0.28200
H1446       H  0.80571761  0.71844966  0.95277810     0.28200
H1447       H  0.77145675  0.74409571  0.91838935     0.18800
H1448       H  0.77665153  0.67247451  0.82892196     0.18800
C1449       C  0.74233269  0.98346360  0.87108200    -0.07100
C1450       C  0.71588345  0.97889469  0.89408788    -0.18200
C1451       C  0.69294704  0.95209372  0.89431213     0.10100
C1452       C  0.69725100  0.92845256  0.87151558    -0.07000
C1453       C  0.72154652  0.93474110  0.84712471    -0.18200
C1454       C  0.74347414  0.96191233  0.84643208     0.10200
S1455       S  0.65983945  0.94940576  0.92486618    -0.33200
S1456       S  0.77204805  0.96779454  0.81315385    -0.33200
H1457       H  0.76494494  0.50295886  0.81193859     0.28200
H1458       H  0.63094122  0.93996546  0.90537131     0.28200
H1459       H  0.71368408  0.99593168  0.91249831     0.18800
H1460       H  0.72454847  0.91783952  0.82870830     0.18800
C1461       C  0.95615940  0.91756414  0.13002492    -0.07100
C1462       C  0.97508725  0.89089364  0.11935888    -0.18200
C1463       C  0.01360425  0.88932606  0.12001666     0.10100
C1464       C  0.03443163  0.91585059  0.12995750    -0.07000
C1465       C  0.01540468  0.94083050  0.14394348    -0.18200
C1466       C  0.97675738  0.94157320  0.14492182     0.10200
S1467       S  0.03390820  0.85324262  0.10654263    -0.33200
S1468       S  0.95462543  0.97338387  0.16531288    -0.33200
H1469       H  0.98633414  0.98510170  0.18001155     0.28200
H1470       H  0.05762792  0.85066473  0.13189871     0.28200
H1471       H  0.95990742  0.87141167  0.10929941     0.18800
H1472       H  0.03085332  0.96054839  0.15320454     0.18800
C1473       C  0.87352598  0.51270261  0.96691347    -0.07100
C1474       C  0.87498838  0.53103064  0.99380996    -0.18200
C1475       C  0.87531624  0.51728678  0.02297485     0.10100
C1476       C  0.87671099  0.98351461  0.02621492    -0.07000
C1477       C  0.87814062  0.96543450  0.99917342    -0.18200
C1478       C  0.87798203  0.97954136  0.96999842     0.10200
S1479       S  0.87800410  0.54368107  0.05528177    -0.33200
S1480       S  0.88114842  0.95465454  0.93648279    -0.33200
H1481       H  0.87662769  0.42512718  0.95218766     0.28200
H1482       H  0.90401107  0.02364895  0.07277990     0.28200
H1483       H  0.87497037  0.55653344  0.99225085     0.18800
H1484       H  0.87802176  0.93997254  0.00084803     0.18800
C1485       C  0.73050335  0.85976710  0.96823851    -0.07100
C1486       C  0.70993029  0.87748425  0.98940822    -0.18200
C1487       C  0.72582150  0.88984246  0.01603212     0.10100
C1488       C  0.76353146  0.88473623  0.02160168    -0.07000
C1489       C  0.78420703  0.86734211  0.00017751    -0.18200
C1490       C  0.76806905  0.85444561  0.97394838     0.10200
S1491       S  0.69781387  0.91300659  0.04172399    -0.33200
S1492       S  0.79638232  0.83009259  0.94980057    -0.33200
H1493       H  0.76872562  0.80750226  0.94400306     0.28200
H1494       H  0.66455896  0.91040234  0.02541268     0.28200
H1495       H  0.68119912  0.88210314  0.98480018     0.18800
H1496       H  0.81304313  0.86267199  0.00441737     0.18800
C1497       C  0.73882584  0.51167122  0.11603229    -0.07100
C1498       C  0.73505390  0.52877035  0.14333635    -0.18200
C1499       C  0.71287605  0.55554485  0.14498678     0.10100
C1500       C  0.69486438  0.56653237  0.11835301    -0.07000
C1501       C  0.69664071  0.54809363  0.09154649    -0.18200
C1502       C  0.71859783  0.52103947  0.09002415     0.10200
S1503       S  0.70920856  0.57478578  0.18170219    -0.33200
S1504       S  0.71946161  0.99948385  0.05412001    -0.33200
H1505       H  0.75714011  0.99224144  0.05532498     0.28200
H1506       H  0.67341246  0.58616837  0.17669470     0.28200
H1507       H  0.74984480  0.52133964  0.16360194     0.18800
H1508       H  0.68342318  0.55621738  0.07078131     0.18800
C1509       C  0.79628257  0.81660934  0.11967180    -0.07100
C1510       C  0.79584073  0.79761469  0.09317569    -0.18200
C1511       C  0.77316303  0.77072295  0.09108697     0.10100
C1512       C  0.75042404  0.76229228  0.11604598    -0.07000
C1513       C  0.75290311  0.77990497  0.14317607    -0.18200
C1514       C  0.77618958  0.80620061  0.14556034     0.10200
S1515       S  0.77189449  0.74998572  0.05505689    -0.33200
S1516       S  0.77879658  0.82555212  0.18230450    -0.33200
H1517       H  0.81496097  0.83683691  0.17828119     0.28200
H1518       H  0.73377235  0.74420478  0.05565460     0.28200
H1519       H  0.81079479  0.80515125  0.07299311     0.18800
H1520       H  0.73648506  0.77312883  0.16279991     0.18800
C1521       C  0.67496021  0.80555350  0.77775992    -0.07100
C1522       C  0.66026511  0.77961920  0.76185647    -0.18200
C1523       C  0.66105253  0.77812782  0.72983924     0.10100
C1524       C  0.67668097  0.80337793  0.71289968    -0.07000
C1525       C  0.69091088  0.82951943  0.72881402    -0.18200
C1526       C  0.68967426  0.83112318  0.76090809     0.10200
S1527       S  0.64242235  0.74285360  0.71244010    -0.33200
S1528       S  0.70480650  0.86684261  0.77972762    -0.33200
H1529       H  0.70228302  0.88644926  0.75384617     0.28200
H1530       H  0.66721787  0.74191590  0.68786507     0.28200
H1531       H  0.64878618  0.75993187  0.77453374     0.18800
H1532       H  0.70219302  0.84917097  0.71600091     0.18800
C1533       C  0.67591361  0.68525970  0.27806321    -0.07100
C1534       C  0.70882298  0.69184707  0.26244471    -0.18200
C1535       C  0.70992963  0.69391238  0.23043242     0.10100
C1536       C  0.67746726  0.68871240  0.21313299    -0.07000
C1537       C  0.64471357  0.68144640  0.22877046    -0.18200
C1538       C  0.64369215  0.67914492  0.26077142     0.10200
S1539       S  0.75321298  0.70516197  0.21342863    -0.33200
S1540       S  0.60083714  0.66676871  0.27792419    -0.33200
H1541       H  0.61721325  0.64875962  0.30123636     0.28200
H1542       H  0.73747640  0.72489848  0.19125765     0.28200
H1543       H  0.73368507  0.69676095  0.27534638     0.18800
H1544       H  0.61980758  0.67664092  0.21588696     0.18800
C1545       C  0.61537138  0.73569382  0.46539607    -0.07100
C1546       C  0.60771130  0.71832783  0.49220419    -0.18200
C1547       C  0.60727609  0.73261299  0.52115250     0.10100
C1548       C  0.61542570  0.76507940  0.52392357    -0.07000
C1549       C  0.62056941  0.78287089  0.49714602    -0.18200
C1550       C  0.62009995  0.76881697  0.46812154     0.10200
S1551       S  0.59591256  0.70813365  0.55355107    -0.33200
S1552       S  0.62595363  0.79479302  0.43584915    -0.33200
H1553       H  0.59817015  0.78010321  0.41837279     0.28200
H1554       H  0.57781066  0.73206162  0.56991702     0.28200
H1555       H  0.60307135  0.69310530  0.49088547     0.18800
H1556       H  0.62616379  0.80795429  0.49883070     0.18800
C1557       C  0.31616867  0.80825824  0.71350413    -0.07100
C1558       C  0.34009183  0.78784246  0.72907218    -0.18200
C1559       C  0.33977813  0.78506318  0.76097686     0.10100
C1560       C  0.31585858  0.80409126  0.77868457    -0.07000
C1561       C  0.29144482  0.82412754  0.76316369    -0.18200
C1562       C  0.29133505  0.82652392  0.73113476     0.10200
S1563       S  0.36938485  0.75538078  0.77703481    -0.33200
S1564       S  0.25965188  0.85431911  0.71474735    -0.33200
H1565       H  0.28620939  0.86773884  0.69531106     0.28200
H1566       H  0.34245183  0.74351678  0.79713671     0.28200
H1567       H  0.35865993  0.77295095  0.71621906     0.18800
H1568       H  0.27281341  0.83886773  0.77611282     0.18800
C1569       C  0.45907558  0.83278663  0.62498175    -0.07100
C1570       C  0.47816246  0.85509820  0.60726127    -0.18200
C1571       C  0.51663053  0.85592184  0.60633529     0.10100
C1572       C  0.53719421  0.83333105  0.62300109    -0.07000
C1573       C  0.51810426  0.81266101  0.64260809    -0.18200
C1574       C  0.47954392  0.81272137  0.64436739     0.10200
S1575       S  0.53718850  0.88431780  0.58081576    -0.33200
S1576       S  0.45817980  0.78684456  0.67192122    -0.33200
H1577       H  0.42804618  0.80669566  0.67764175     0.28200
H1578       H  0.55713430  0.89920243  0.60443852     0.28200
H1579       H  0.46304958  0.87098671  0.59252957     0.18800
H1580       H  0.53331551  0.79595220  0.65637383     0.18800
C1581       C  0.31587319  0.69591989  0.21441665    -0.07100
C1582       C  0.29258235  0.67460768  0.22972803    -0.18200
C1583       C  0.29181473  0.67279186  0.26172549     0.10100
C1584       C  0.31555847  0.69219772  0.27940479    -0.07000
C1585       C  0.33861786  0.71370121  0.26402847    -0.18200
C1586       C  0.33853535  0.71625989  0.23212092     0.10200
S1587       S  0.26103482  0.64417132  0.27821447    -0.33200
S1588       S  0.36690518  0.74701839  0.21590310    -0.33200
H1589       H  0.33992671  0.75700029  0.19496577     0.28200
H1590       H  0.23842992  0.66744222  0.29122410     0.28200
H1591       H  0.27502644  0.65881892  0.21667000     0.18800
H1592       H  0.35634101  0.72941947  0.27701009     0.18800
C1593       C  0.45865026  0.66438753  0.36643694    -0.07100
C1594       C  0.47668285  0.64108718  0.38356526    -0.18200
C1595       C  0.51508190  0.63930701  0.38455674     0.10100
C1596       C  0.53660139  0.66172956  0.36834331    -0.07000
C1597       C  0.51843779  0.68309554  0.34895044    -0.18200
C1598       C  0.47996061  0.68435279  0.34747198     0.10200
S1599       S  0.53430418  0.60998733  0.40961669    -0.33200
S1600       S  0.45989095  0.71217627  0.32122400    -0.33200
H1601       H  0.42864371  0.69357299  0.31476176     0.28200
H1602       H  0.55562895  0.59635921  0.38626004     0.28200
H1603       H  0.46084616  0.62522060  0.39792548     0.18800
H1604       H  0.53434299  0.69972671  0.33548046     0.18800
C1605       C  0.37992469  0.73472204  0.46672175    -0.07100
C1606       C  0.38149719  0.71625348  0.49348198    -0.18200
C1607       C  0.38142220  0.72993674  0.52270118     0.10100
C1608       C  0.37895105  0.76304951  0.52570295    -0.07000
C1609       C  0.37915194  0.78156100  0.49896962    -0.18200
C1610       C  0.38004003  0.76795876  0.46978382     0.10200
S1611       S  0.38479024  0.70375061  0.55502852    -0.33200
S1612       S  0.38132931  0.79457416  0.43763715    -0.33200
H1613       H  0.40618306  0.77622088  0.42064386     0.28200
H1614       H  0.40764041  0.72402255  0.57219361     0.28200
H1615       H  0.38179650  0.69076118  0.49176349     0.18800
H1616       H  0.37767096  0.80702279  0.50069278     0.18800
C1617       C  0.17896229  0.55592805  0.71410028    -0.07100
C1618       C  0.21229687  0.55688409  0.73041845    -0.18200
C1619       C  0.21314205  0.55788993  0.76253156     0.10100
C1620       C  0.17979398  0.55708579  0.77942829    -0.07000
C1621       C  0.14649011  0.55620951  0.76299850    -0.18200
C1622       C  0.14563498  0.55641098  0.73092790     0.10200
S1623       S  0.25785149  0.55897764  0.78023890    -0.33200
S1624       S  0.10093367  0.55915011  0.71321474    -0.33200
H1625       H  0.11197081  0.58163035  0.69133347     0.28200
H1626       H  0.25248275  0.58946206  0.79215814     0.28200
H1627       H  0.23812842  0.55668876  0.71805410     0.18800
H1628       H  0.12057644  0.55630333  0.77524003     0.18800
C1629       C  0.30060187  0.93003566  0.61422269    -0.07100
C1630       C  0.28958714  0.94376958  0.58640749    -0.18200
C1631       C  0.26704512  0.97042375  0.58584045     0.10100
C1632       C  0.25593596  0.98422124  0.61371650    -0.07000
C1633       C  0.26918307  0.97197125  0.64141015    -0.18200
C1634       C  0.29174560  0.94532036  0.64193038     0.10200
S1635       S  0.25158458  0.98418746  0.54893150    -0.33200
S1636       S  0.30849549  0.93200681  0.67850331    -0.33200
H1637       H  0.33972517  0.91663425  0.66689529     0.28200
H1638       H  0.21773965  0.99648699  0.55863066     0.28200
H1639       H  0.29596537  0.93214469  0.56495306     0.18800
H1640       H  0.26340554  0.48410679  0.66246245     0.18800
C1641       C  0.19827591  0.67975313  0.62112006    -0.07100
C1642       C  0.22237720  0.68694765  0.64541660    -0.18200
C1643       C  0.24386211  0.71441569  0.64561226     0.10100
C1644       C  0.24220709  0.73563241  0.62068454    -0.07000
C1645       C  0.21581947  0.73020263  0.59776653    -0.18200
C1646       C  0.19366328  0.70285580  0.59781995     0.10200
S1647       S  0.27303459  0.72083452  0.67848831    -0.33200
S1648       S  0.16189031  0.69838102  0.56644973    -0.33200
H1649       H  0.13225353  0.68996205  0.58554324     0.28200
H1650       H  0.26765376  0.75363677  0.67925755     0.28200
H1651       H  0.22574454  0.67039106  0.66407319     0.18800
H1652       H  0.21342018  0.74675550  0.57899314     0.18800
C1653       C  0.23314218  0.61292006  0.52442335    -0.07100
C1654       C  0.21438497  0.63503084  0.50620316    -0.18200
C1655       C  0.23051396  0.64810024  0.48011569     0.10100
C1656       C  0.26601892  0.63845482  0.47157208    -0.07000
C1657       C  0.28478901  0.61639600  0.48981319    -0.18200
C1658       C  0.26869921  0.60336686  0.51591487     0.10200
S1659       S  0.20520343  0.67793035  0.45976377    -0.33200
S1660       S  0.29414903  0.57363723  0.53625561    -0.33200
H1661       H  0.26315292  0.55535253  0.54392945     0.28200
H1662       H  0.23623595  0.69616740  0.45191199     0.28200
H1663       H  0.18719028  0.64287607  0.51281829     0.18800
H1664       H  0.31192534  0.60845878  0.48313601     0.18800
C1665       C  0.18096762  0.94307686  0.27720411    -0.07100
C1666       C  0.16610921  0.96924259  0.26194590    -0.18200
C1667       C  0.16676740  0.97156657  0.22998023     0.10100
C1668       C  0.18166271  0.94674569  0.21232429    -0.07000
C1669       C  0.19738150  0.92092929  0.22750226    -0.18200
C1670       C  0.19681961  0.91863426  0.25954467     0.10200
S1671       S  0.14966772  0.00751081  0.21328314    -0.33200
S1672       S  0.21435179  0.88289791  0.27620421    -0.33200
H1673       H  0.18557284  0.87989708  0.29752579     0.28200
H1674       H  0.17539974  0.00839428  0.18926622     0.28200
H1675       H  0.15459090  0.98849361  0.27509356     0.18800
H1676       H  0.20868300  0.90166359  0.21425747     0.18800
C1677       C  0.23113530  0.88867460  0.46924290    -0.07100
C1678       C  0.21005393  0.87300922  0.49171310    -0.18200
C1679       C  0.22631328  0.85910148  0.51729712     0.10100
C1680       C  0.26475123  0.86127726  0.52126459    -0.07000
C1681       C  0.28578295  0.87739921  0.49908243    -0.18200
C1682       C  0.26951890  0.89133764  0.47349168     0.10200
S1683       S  0.19657568  0.83749850  0.54288012    -0.33200
S1684       S  0.29919884  0.91327464  0.44812469    -0.33200
H1685       H  0.27380751  0.93762659  0.44316453     0.28200
H1686       H  0.22126020  0.81242342  0.54710518     0.28200
H1687       H  0.18060098  0.87029980  0.48877305     0.18800
H1688       H  0.31522101  0.88011713  0.50213637     0.18800
C1689       C  0.11860960  0.98286070  0.46630679    -0.07100
C1690       C  0.12332895  0.51575776  0.46750599    -0.18200
C1691       C  0.12445643  0.53182255  0.49549566     0.10100
C1692       C  0.12155152  0.51489880  0.52337593    -0.07000
C1693       C  0.11684092  0.98186811  0.52232135    -0.18200
C1694       C  0.11493863  0.96587684  0.49421203     0.10200
S1695       S  0.13291822  0.57361509  0.49375304    -0.33200
S1696       S  0.10993207  0.92364190  0.49605599    -0.33200
H1697       H  0.07686212  0.92367099  0.47926876     0.28200
H1698       H  0.09857233  0.58103617  0.50663231     0.28200
H1699       H  0.12712495  0.52918829  0.44664416     0.18800
H1700       H  0.11541708  0.96833727  0.54332529     0.18800
C1701       C  0.19956730  0.81882237  0.37239178    -0.07100
C1702       C  0.22351464  0.81204264  0.34794204    -0.18200
C1703       C  0.24550302  0.78508380  0.34775295     0.10100
C1704       C  0.24469204  0.76414433  0.37291352    -0.07000
C1705       C  0.21870876  0.76924082  0.39614122    -0.18200
C1706       C  0.19589306  0.79592394  0.39599324     0.10200
S1707       S  0.27376940  0.77868939  0.31442221    -0.33200
S1708       S  0.16417932  0.79970495  0.42740848    -0.33200
H1709       H  0.13417555  0.80687109  0.40830036     0.28200
H1710       H  0.26807903  0.74586532  0.31386459     0.28200
H1711       H  0.22614796  0.82842947  0.32904691     0.18800
H1712       H  0.21688052  0.75279290  0.41506302     0.18800
C1713       C  0.25280610  0.51416828  0.37694353    -0.07100
C1714       C  0.26031539  0.52953870  0.34920754    -0.18200
C1715       C  0.28322934  0.55615966  0.34811465     0.10100
C1716       C  0.29801359  0.56866411  0.37552275    -0.07000
C1717       C  0.29265770  0.55183942  0.40294023    -0.18200
C1718       C  0.27002453  0.52497246  0.40399257     0.10200
S1719       S  0.29280096  0.57289304  0.31105753    -0.33200
S1720       S  0.25934589  0.00802120  0.44101517    -0.33200
H1721       H  0.22286551  0.99896606  0.43462627     0.28200
H1722       H  0.32680057  0.58643890  0.31936393     0.28200
H1723       H  0.24815704  0.52071656  0.32818372     0.18800
H1724       H  0.30353206  0.56116106  0.42423815     0.18800
C1725       C  0.81723995  0.55945870  0.71293661    -0.07100
C1726       C  0.84986968  0.56652050  0.72888484    -0.18200
C1727       C  0.85069206  0.56819973  0.76093749     0.10100
C1728       C  0.81837092  0.56170025  0.77792457    -0.07000
C1729       C  0.78555565  0.55546718  0.76197803    -0.18200
C1730       C  0.78468497  0.55389305  0.72993839     0.10200
S1731       S  0.89342799  0.58025287  0.77857020    -0.33200
S1732       S  0.74163717  0.54256961  0.71248884    -0.33200
H1733       H  0.75770498  0.52312032  0.69022356     0.28200
H1734       H  0.87688950  0.59795519  0.80204214     0.28200
H1735       H  0.87486092  0.57151178  0.71622175     0.18800
H1736       H  0.76057457  0.55040283  0.77461763     0.18800
C1737       C  0.96082351  0.57955930  0.62541865    -0.07100
C1738       C  0.97884204  0.55311178  0.63779015    -0.18200
C1739       C  0.01738716  0.55104343  0.63887425     0.10100
C1740       C  0.03911566  0.57598160  0.62683456    -0.07000
C1741       C  0.02117880  0.60370044  0.61750027    -0.18200
C1742       C  0.98271193  0.60599588  0.61713301     0.10200
S1743       S  0.03778611  0.51607238  0.65532338    -0.33200
S1744       S  0.96392199  0.64302959  0.60467677    -0.33200
H1745       H  0.93895728  0.64485838  0.62922480     0.28200
H1746       H  0.00498512  0.50109222  0.66448554     0.28200
H1747       H  0.96263066  0.53320646  0.64555924     0.18800
H1748       H  0.03715723  0.62356969  0.60920880     0.18800
C1749       C  0.76519536  0.60964991  0.52096667    -0.07100
C1750       C  0.74174077  0.63552155  0.52471421    -0.18200
C1751       C  0.72647386  0.65087462  0.49942850     0.10100
C1752       C  0.73465085  0.63993872  0.46965713    -0.07000
C1753       C  0.75831910  0.61421822  0.46590112    -0.18200
C1754       C  0.77334232  0.59869747  0.49119072     0.10200
S1755       S  0.69795713  0.68515063  0.50545025    -0.33200
S1756       S  0.80088238  0.56384284  0.48516549    -0.33200
H1757       H  0.79859684  0.56319936  0.45302194     0.28200
H1758       H  0.69973538  0.68550286  0.53762094     0.28200
H1759       H  0.73646560  0.64442709  0.54752600     0.18800
H1760       H  0.76351749  0.60527312  0.44309074     0.18800
C1761       C  0.75289905  0.73419063  0.61499202    -0.07100
C1762       C  0.77037705  0.72537419  0.58766754    -0.18200
C1763       C  0.79359217  0.69891837  0.58634218     0.10100
C1764       C  0.79899984  0.68003254  0.61284323    -0.07000
C1765       C  0.78334482  0.69039517  0.64052090    -0.18200
C1766       C  0.76117421  0.71731173  0.64195570     0.10200
S1767       S  0.81302792  0.68941107  0.54961220    -0.33200
S1768       S  0.74447067  0.72901815  0.67904361    -0.33200
H1769       H  0.74562077  0.76157113  0.67310274     0.28200
H1770       H  0.84911482  0.68750306  0.56110845     0.28200
H1771       H  0.76507179  0.73866540  0.56696642     0.18800
H1772       H  0.78757418  0.67685399  0.66124067     0.18800
C1773       C  0.74469318  0.98452300  0.61596288    -0.07100
C1774       C  0.74214611  0.96681866  0.64301211    -0.18200
C1775       C  0.71940890  0.94012389  0.64507677     0.10100
C1776       C  0.70003188  0.92930198  0.61889971    -0.07000
C1777       C  0.70087978  0.94819664  0.59231772    -0.18200
C1778       C  0.72290289  0.97552766  0.59057295     0.10200
S1779       S  0.71632400  0.92116982  0.68193795    -0.33200
S1780       S  0.72419792  0.99629702  0.55454965    -0.33200
H1781       H  0.76007034  0.50456653  0.55659931     0.28200
H1782       H  0.67960333  0.91119916  0.67812861     0.28200
H1783       H  0.75806178  0.97385568  0.66286202     0.18800
H1784       H  0.68639873  0.94050953  0.57192973     0.18800
C1785       C  0.81366419  0.93870445  0.27882974    -0.07100
C1786       C  0.78007356  0.94265190  0.26332390    -0.18200
C1787       C  0.77839889  0.94365851  0.23118815     0.10100
C1788       C  0.81101195  0.94007625  0.21376823    -0.07000
C1789       C  0.84429910  0.93532077  0.22936295    -0.18200
C1790       C  0.84589179  0.93391141  0.26129520     0.10200
S1791       S  0.73418064  0.95133376  0.21414779    -0.33200
S1792       S  0.88967845  0.92381386  0.27790916    -0.33200
H1793       H  0.87474284  0.90443979  0.30095763     0.28200
H1794       H  0.74796554  0.97219037  0.19188782     0.28200
H1795       H  0.75503925  0.94608223  0.27630677     0.18800
H1796       H  0.86939307  0.93165446  0.21647940     0.18800
C1797       C  0.95902709  0.92009995  0.36117396    -0.07100
C1798       C  0.97736928  0.89263664  0.37061774    -0.18200
C1799       C  0.01586322  0.89086121  0.37115888     0.10100
C1800       C  0.03732166  0.91750012  0.36267306    -0.07000
C1801       C  0.01891523  0.94373561  0.35034845    -0.18200
C1802       C  0.98047129  0.94522208  0.34910488     0.10200
S1803       S  0.03520142  0.85450824  0.38486209    -0.33200
S1804       S  0.96116665  0.98042872  0.33259510    -0.33200
H1805       H  0.93164907  0.96471005  0.31839847     0.28200
H1806       H  0.05928203  0.85156034  0.35981444     0.28200
H1807       H  0.96170539  0.87270964  0.37918676     0.18800
H1808       H  0.03455337  0.96398501  0.34247119     0.18800
C1809       C  0.88111554  0.98277731  0.46571514    -0.07100
C1810       C  0.87955891  0.96465787  0.49265626    -0.18200
C1811       C  0.88001420  0.97877034  0.52178658     0.10100
C1812       C  0.87878389  0.50979178  0.52534582    -0.07000
C1813       C  0.88719560  0.52738048  0.49882118    -0.18200
C1814       C  0.88777436  0.51356297  0.46963319     0.10200
S1815       S  0.87946046  0.95267766  0.55430608    -0.33200
S1816       S  0.89869530  0.53876450  0.43765638    -0.33200
H1817       H  0.91702760  0.51538741  0.42073575     0.28200
H1818       H  0.90472280  0.97081159  0.57139071     0.28200
H1819       H  0.87688122  0.93923555  0.49107420     0.18800
H1820       H  0.89224648  0.55252195  0.50052551     0.18800
C1821       C  0.73293395  0.86253195  0.52355896    -0.07100
C1822       C  0.77103248  0.85866685  0.52132589    -0.18200
C1823       C  0.79034482  0.86858428  0.49525568     0.10100
C1824       C  0.77086808  0.88298718  0.47069753    -0.07000
C1825       C  0.73285003  0.88700287  0.47320206    -0.18200
C1826       C  0.71386706  0.87763840  0.49932591     0.10200
S1827       S  0.83931183  0.86096367  0.49361031    -0.33200
S1828       S  0.66563579  0.88742395  0.50046708    -0.33200
H1829       H  0.66692207  0.89885622  0.53069032     0.28200
H1830       H  0.84305661  0.84716348  0.52269918     0.28200
H1831       H  0.78553078  0.84716624  0.53982139     0.18800
H1832       H  0.71775871  0.89842742  0.45494515     0.18800
C1833       C  0.74237265  0.51128423  0.37710359    -0.07100
C1834       C  0.72515992  0.52052204  0.40433567    -0.18200
C1835       C  0.70426631  0.54835546  0.40582729     0.10100
C1836       C  0.69987882  0.56713032  0.37911276    -0.07000
C1837       C  0.71516380  0.55638137  0.35148716    -0.18200
C1838       C  0.73600582  0.52880881  0.35018949     0.10200
S1839       S  0.68650244  0.56063408  0.44261356    -0.33200
S1840       S  0.75416833  0.51730959  0.31347816    -0.33200
H1841       H  0.74758648  0.98386391  0.31977602     0.28200
H1842       H  0.70346149  0.53721301  0.46040588     0.28200
H1843       H  0.72985183  0.50678259  0.42483181     0.18800
H1844       H  0.71189031  0.57016696  0.33079577     0.18800
C1845       C  0.79747115  0.81779495  0.37023606    -0.07100
C1846       C  0.77173128  0.81236197  0.34658496    -0.18200
C1847       C  0.74862383  0.78585828  0.34631377     0.10100
C1848       C  0.75057624  0.76364738  0.37034904    -0.07000
C1849       C  0.77808804  0.76752034  0.39268877    -0.18200
C1850       C  0.80162316  0.79397496  0.39279503     0.10200
S1851       S  0.71727554  0.78193422  0.31446700    -0.33200
S1852       S  0.83485741  0.79632800  0.42328104    -0.33200
H1853       H  0.86403888  0.80435049  0.40355847     0.28200
H1854       H  0.72119271  0.74906275  0.31180039     0.28200
H1855       H  0.76841368  0.82958753  0.32850328     0.18800
H1856       H  0.78062094  0.75022399  0.41080359     0.18800
loop_ 
_geom_bond_atom_site_label_1 
_geom_bond_atom_site_label_2 
_geom_bond_distance 
_geom_bond_site_symmetry_2 
_ccdc_geom_bond_type 
Fe1          O17   2.089       .  S
Fe1           O7   2.055       .  S
Fe1          O14   2.064       .  S
Fe1           O6   2.080       .  S
Fe1          O12   1.940       .  S
Fe2           O5   2.104       .  S
Fe2           O9   2.065       .  S
Fe2          O13   2.098       .  S
Fe2          O18   2.021       .  S
Fe2          O12   1.944       .  S
Fe3          O21   2.044       .  S
Fe3           O8   2.100       .  S
Fe3          O15   2.106       .  S
Fe3           O4   2.067       .  S
Fe3          O12   1.937       .  S
O4           C11   1.265       .  A
O5           C19   1.274       .  A
O6           C11   1.268       .  A
O7           C10   1.275       .  A
O8           C20   1.281       .  A
O9           C22   1.270       .  A
C10          O15   1.282       .  A
C10         C857   1.489       .  S
C11        C1833   1.480       .  S
O13          C16   1.277       .  A
O14          C16   1.273       .  A
C16         C881   1.488       .  S
O17          C22   1.272       .  A
O18          C20   1.261       .  A
C19          O21   1.265       .  A
C19         C917   1.500       .  S
C20         C896   1.481       .  S
C22         C869   1.496       .  S
Fe23         O39   2.085       .  S
Fe23         O29   2.066       .  S
Fe23         O36   2.073       .  S
Fe23         O28   2.080       .  S
Fe23         O34   1.943       .  S
Fe24         O27   2.107       .  S
Fe24         O31   2.066       .  S
Fe24         O35   2.096       .  S
Fe24         O40   2.031       .  S
Fe24         O34   1.953       .  S
Fe25         O43   2.054       .  S
Fe25         O30   2.094       .  S
Fe25         O37   2.098       .  S
Fe25         O26   2.073       .  S
Fe25         O34   1.944       .  S
O26          C33   1.268       .  A
O27          C41   1.274       .  A
O28          C33   1.270       .  A
O29          C32   1.275       .  A
O30          C42   1.278       .  A
O31          C44   1.271       .  A
C32          O37   1.279       .  A
C32         C797   1.490       .  S
C33        C1773   1.484   1_545  S
O35          C38   1.275       .  A
O36          C38   1.272       .  A
C38         C884   1.501       .  S
O39          C44   1.275       .  A
O40          C42   1.266       .  A
C41          O43   1.267       .  A
C41         C836   1.503       .  S
C42         C821   1.470       .  S
C44         C809   1.500       .  S
Fe45         O61   2.069       .  S
Fe45         O51   2.080       .  S
Fe45         O58   2.092       .  S
Fe45         O50   2.060       .  S
Fe45         O56   1.939       .  S
Fe46         O49   2.033       .  S
Fe46         O53   2.083       .  S
Fe46         O57   2.060       .  S
Fe46         O62   2.095       .  S
Fe46         O56   1.949       .  S
Fe47         O65   2.098       .  S
Fe47         O52   2.048       .  S
Fe47         O59   2.064       .  S
Fe47         O48   2.102       .  S
Fe47         O56   1.937       .  S
O48          C55   1.280       .  A
O49          C63   1.267       .  A
O50          C55   1.275       .  A
O51          C54   1.269       .  A
O52          C64   1.267       .  A
O53          C66   1.269       .  A
C54          O59   1.266       .  A
C54        C1713   1.475       .  S
C55         C737   1.486       .  S
O57          C60   1.270       .  A
O58          C60   1.277       .  A
C60         C872   1.499       .  S
O61          C66   1.272       .  A
O62          C64   1.271       .  A
C63          O65   1.278       .  A
C63         C749   1.480       .  S
C64         C773   1.499       .  S
C66         C761   1.496       .  S
Fe67         O83   2.072       .  S
Fe67         O73   2.077       .  S
Fe67         O80   2.092       .  S
Fe67         O72   2.062       .  S
Fe67         O78   1.946       .  S
Fe68         O71   2.026       .  S
Fe68         O75   2.089       .  S
Fe68         O79   2.057       .  S
Fe68         O84   2.086       .  S
Fe68         O78   1.946       .  S
Fe69         O87   2.100       .  S
Fe69         O74   2.056       .  S
Fe69         O81   2.063       .  S
Fe69         O70   2.102       .  S
Fe69         O78   1.944       .  S
O70          C77   1.281       .  A
O71          C85   1.266       .  A
O72          C77   1.275       .  A
O73          C76   1.268       .  A
O74          C86   1.267       .  A
O75          C88   1.272       .  A
C76          O81   1.265       .  A
C76        C1632   1.471   1_545  S
C77         C689   1.492       .  S
O79          C82   1.269       .  A
O80          C82   1.274       .  A
C82         C812   1.495       .  S
O83          C88   1.273       .  A
O84          C86   1.269       .  A
C85          O87   1.279       .  A
C85         C725   1.471       .  S
C86         C713   1.500       .  S
C88         C764   1.494       .  S
Fe89        O105   2.100       .  S
Fe89         O95   2.052       .  S
Fe89        O102   2.058       .  S
Fe89         O94   2.084       .  S
Fe89        O100   1.937       .  S
Fe90         O93   2.085       .  S
Fe90         O97   2.048       .  S
Fe90        O101   2.088       .  S
Fe90        O106   2.024       .  S
Fe90        O100   1.944       .  S
Fe91        O109   2.050       .  S
Fe91         O96   2.104       .  S
Fe91        O103   2.101       .  S
Fe91         O92   2.065       .  S
Fe91        O100   1.938       .  S
O92          C99   1.267       .  A
O93         C107   1.271       .  A
O94          C99   1.271       .  A
O95          C98   1.274       .  A
O96         C108   1.280       .  A
O97         C110   1.267       .  A
C98         O103   1.279       .  A
C98         C656   1.491       .  S
C99         C776   1.487       .  S
O101        C104   1.274       .  A
O102        C104   1.269       .  A
C104        C677   1.489       .  S
O105        C110   1.276       .  A
O106        C108   1.265       .  A
C107        O109   1.266       .  A
C107        C788   1.482       .  S
C108        C728   1.470       .  S
C110        C665   1.486       .  S
Fe111       O127   2.091       .  S
Fe111       O117   2.059       .  S
Fe111       O124   2.069       .  S
Fe111       O116   2.078       .  S
Fe111       O122   1.938       .  S
Fe112       O115   2.078       .  S
Fe112       O119   2.058       .  S
Fe112       O123   2.079       .  S
Fe112       O128   2.038       .  S
Fe112       O122   1.945       .  S
Fe113       O131   2.063       .  S
Fe113       O118   2.097       .  S
Fe113       O125   2.093       .  S
Fe113       O114   2.076       .  S
Fe113       O122   1.940       .  S
O114        C121   1.269       .  A
O115        C129   1.269       .  A
O116        C121   1.270       .  A
O117        C120   1.275       .  A
O118        C130   1.279       .  A
O119        C132   1.270       .  A
C120        O125   1.278       .  A
C120        C629   1.491       .  S
C121        C716   1.488       .  S
O123        C126   1.271       .  A
O124        C126   1.271       .  A
C126        C680   1.485       .  S
O127        C132   1.274       .  A
O128        C130   1.269       .  A
C129        O131   1.268       .  A
C129        C701   1.480       .  S
C130        C752   1.480       .  S
C132        C641   1.490       .  S
Fe133       O149   2.068       .  S
Fe133       O139   2.088       .  S
Fe133       O146   2.096       .  S
Fe133       O138   2.062       .  S
Fe133       O144   1.940       .  S
Fe134       O137   2.032       .  S
Fe134       O141   2.088       .  S
Fe134       O145   2.054       .  S
Fe134       O150   2.090       .  S
Fe134       O144   1.951       .  S
Fe135       O153   2.094       .  S
Fe135       O140   2.052       .  S
Fe135       O147   2.064       .  S
Fe135       O136   2.101       .  S
Fe135       O144   1.943       .  S
O136        C143   1.280       .  A
O137        C151   1.266       .  A
O138        C143   1.274       .  A
O139        C142   1.272       .  A
O140        C152   1.267       .  A
O141        C154   1.273       .  A
C142        O147   1.267       .  A
C142        C920   1.487       .  S
C143        C605   1.489       .  S
O145        C148   1.268       .  A
O146        C148   1.276       .  A
C148        C668   1.492       .  S
O149        C154   1.270       .  A
O150        C152   1.271       .  A
C151        O153   1.278       .  A
C151        C824   1.471       .  S
C152        C908   1.492       .  S
C154        C617   1.500       .  S
Fe155       O171   2.068       .  S
Fe155       O161   2.102       .  S
Fe155       O168   2.102       .  S
Fe155       O160   2.054       .  S
Fe155       O166   1.941       .  S
Fe156       O159   2.024       .  S
Fe156       O163   2.085       .  S
Fe156       O167   2.050       .  S
Fe156       O172   2.096       .  S
Fe156       O166   1.943       .  S
Fe157       O175   2.101       .  S
Fe157       O162   2.054       .  S
Fe157       O169   2.071       .  S
Fe157       O158   2.102       .  S
Fe157       O166   1.942       .  S
O158        C165   1.281       .  A
O159        C173   1.263       .  A
O160        C165   1.271       .  A
O161        C164   1.275       .  A
O162        C174   1.267       .  A
O163        C176   1.272       .  A
C164        O169   1.268       .  A
C164        C833   1.491       .  S
C165        C596   1.490       .  S
O167        C170   1.267       .  A
O168        C170   1.278       .  A
C170        C644   1.494       .  S
O171        C176   1.271       .  A
O172        C174   1.273       .  A
C173        O175   1.279       .  A
C173        C893   1.476       .  S
C174        C848   1.495       .  S
C176        C620   1.485       .  S
Fe177       O193   2.065       .  S
Fe177       O183   2.074       .  S
Fe177       O190   2.088       .  S
Fe177       O182   2.057       .  S
Fe177       O188   1.942       .  S
Fe178       O181   2.030       .  S
Fe178       O185   2.096       .  S
Fe178       O189   2.063       .  S
Fe178       O194   2.097       .  S
Fe178       O188   1.949       .  S
Fe179       O197   2.091       .  S
Fe179       O184   2.046       .  S
Fe179       O191   2.065       .  S
Fe179       O180   2.102       .  S
Fe179       O188   1.941       .  S
O180        C187   1.280       .  A
O181        C195   1.266       .  A
O182        C187   1.276       .  A
O183        C186   1.267       .  A
O184        C196   1.266       .  A
O185        C198   1.276       .  A
C186        O191   1.265       .  A
C186       C1497   1.477       .  S
C187        C860   1.489       .  S
O189        C192   1.270       .  A
O190        C192   1.272       .  A
C192        C533   1.496       .  S
O193        C198   1.271       .  A
O194        C196   1.274       .  A
C195        O197   1.277       .  A
C195        C560   1.474       .  S
C196        C581   1.491       .  S
C198        C548   1.495       .  S
Fe199       O215   2.071       .  S
Fe199       O205   2.083       .  S
Fe199       O212   2.091       .  S
Fe199       O204   2.062       .  S
Fe199       O210   1.944       .  S
Fe200       O203   2.034       .  S
Fe200       O207   2.092       .  S
Fe200       O211   2.059       .  S
Fe200       O216   2.099       .  S
Fe200       O210   1.949       .  S
Fe201       O219   2.097       .  S
Fe201       O206   2.047       .  S
Fe201       O213   2.063       .  S
Fe201       O202   2.099       .  S
Fe201       O210   1.944       .  S
O202        C209   1.280       .  A
O203        C217   1.266       .  A
O204        C209   1.274       .  A
O205        C208   1.271       .  A
O206        C218   1.266       .  A
O207        C220   1.275       .  A
C208        O213   1.266       .  A
C208       C1449   1.485   1_545  S
C209        C800   1.488       .  S
O211        C214   1.268       .  A
O212        C214   1.275       .  A
C214        C485   1.496       .  S
O215        C220   1.272       .  A
O216        C218   1.273       .  A
C217        O219   1.278       .  A
C217        C497   1.466       .  S
C218        C512   1.500       .  S
C220        C545   1.498       .  S
Fe221       O237   2.091       .  S
Fe221       O227   2.058       .  S
Fe221       O234   2.066       .  S
Fe221       O226   2.081       .  S
Fe221       O232   1.949       .  S
Fe222       O225   2.094       .  S
Fe222       O229   2.059       .  S
Fe222       O233   2.090       .  S
Fe222       O238   2.038       .  S
Fe222       O232   1.952       .  S
Fe223       O241   2.040       .  S
Fe223       O228   2.096       .  S
Fe223       O235   2.102       .  S
Fe223       O224   2.063       .  S
Fe223       O232   1.942       .  S
O224        C231   1.265       .  A
O225        C239   1.275       .  A
O226        C231   1.268       .  A
O227        C230   1.275       .  A
O228        C240   1.277       .  A
O229        C242   1.266       .  A
C230        O235   1.280       .  A
C230        C740   1.483       .  S
C231       C1401   1.479       .  S
O233        C236   1.276       .  A
O234        C236   1.273       .  A
C236        C449   1.487       .  S
O237        C242   1.274       .  A
O238        C240   1.266       .  A
C239        O241   1.265       .  A
C239        C461   1.489       .  S
C240        C437   1.484       .  S
C242        C536   1.499       .  S
Fe243       O259   2.090       .  S
Fe243       O249   2.061       .  S
Fe243       O256   2.059       .  S
Fe243       O248   2.077       .  S
Fe243       O254   1.941       .  S
Fe244       O247   2.098       .  S
Fe244       O251   2.062       .  S
Fe244       O255   2.097       .  S
Fe244       O260   2.036       .  S
Fe244       O254   1.950       .  S
Fe245       O263   2.049       .  S
Fe245       O250   2.102       .  S
Fe245       O257   2.103       .  S
Fe245       O246   2.067       .  S
Fe245       O254   1.942       .  S
O246        C253   1.267       .  A
O247        C261   1.273       .  A
O248        C253   1.270       .  A
O249        C252   1.275       .  A
O250        C262   1.280       .  A
O251        C264   1.270       .  A
C252        O257   1.279       .  A
C252        C692   1.496       .  S
C253       C1329   1.487   1_545  S
O255        C258   1.276       .  A
O256        C258   1.269       .  A
C258        C452   1.499       .  S
O259        C264   1.273       .  A
O260        C262   1.266       .  A
C261        O263   1.267       .  A
C261        C413   1.498       .  S
C262        C425   1.477       .  S
C264        C488   1.493       .  S
Fe265       O281   2.061       .  S
Fe265       O271   2.084       .  S
Fe265       O278   2.090       .  S
Fe265       O270   2.053       .  S
Fe265       O276   1.942       .  S
Fe266       O269   2.041       .  S
Fe266       O273   2.091       .  S
Fe266       O277   2.063       .  S
Fe266       O282   2.085       .  S
Fe266       O276   1.945       .  S
Fe267       O285   2.097       .  S
Fe267       O272   2.052       .  S
Fe267       O279   2.060       .  S
Fe267       O268   2.098       .  S
Fe267       O276   1.944       .  S
O268        C275   1.280       .  A
O269        C283   1.268       .  A
O270        C275   1.272       .  A
O271        C274   1.270       .  A
O272        C284   1.266       .  A
O273        C286   1.275       .  A
C274        O279   1.265       .  A
C274        C464   1.482       .  S
C275        C653   1.488       .  S
O277        C280   1.270       .  A
O278        C280   1.273       .  A
C280        C377   1.495       .  S
O281        C286   1.271       .  A
O282        C284   1.273       .  A
C283        O285   1.278       .  A
C283        C428   1.476       .  S
C284        C476   1.488       .  S
C286        C392   1.491       .  S
Fe287       O303   2.063       .  S
Fe287       O293   2.086       .  S
Fe287       O300   2.090       .  S
Fe287       O292   2.053       .  S
Fe287       O298   1.938       .  S
Fe288       O291   2.036       .  S
Fe288       O295   2.086       .  S
Fe288       O299   2.064       .  S
Fe288       O304   2.086       .  S
Fe288       O298   1.947       .  S
Fe289       O307   2.103       .  S
Fe289       O294   2.053       .  S
Fe289       O301   2.068       .  S
Fe289       O290   2.102       .  S
Fe289       O298   1.940       .  S
O290        C297   1.281       .  A
O291        C305   1.269       .  A
O292        C297   1.271       .  A
O293        C296   1.271       .  A
O294        C306   1.268       .  A
O295        C308   1.273       .  A
C296        O301   1.267       .  A
C296        C416   1.484       .  S
C297        C632   1.491       .  S
O299        C302   1.271       .  A
O300        C302   1.274       .  A
C302        C365   1.492       .  S
O303        C308   1.271       .  A
O304        C306   1.269       .  A
C305        O307   1.279       .  A
C305        C440   1.478       .  S
C306        C404   1.497       .  S
C308        C389   1.488       .  S
Fe309       O325   2.092       .  S
Fe309       O315   2.068       .  S
Fe309       O322   2.077       .  S
Fe309       O314   2.087       .  S
Fe309       O320   1.943       .  S
Fe310       O313   2.090       .  S
Fe310       O317   2.060       .  S
Fe310       O321   2.084       .  S
Fe310       O326   2.037       .  S
Fe310       O320   1.953       .  S
Fe311       O329   2.046       .  S
Fe311       O316   2.092       .  S
Fe311       O323   2.097       .  S
Fe311       O312   2.066       .  S
Fe311       O320   1.946       .  S
O312        C319   1.266       .  A
O313        C327   1.272       .  A
O314        C319   1.271       .  A
O315        C318   1.276       .  A
O316        C328   1.277       .  A
O317        C330   1.269       .  A
C318        O323   1.279       .  A
C318        C608   1.490       .  S
C319        C584   1.484       .  S
O321        C324   1.270       .  A
O322        C324   1.275       .  A
C324        C356   1.501       .  S
O325        C330   1.276       .  A
O326        C328   1.266       .  A
C327        O329   1.265       .  A
C327        C572   1.489       .  S
C328        C500   1.465       .  S
C330        C380   1.498       .  S
Fe331       O347   2.104       .  S
Fe331       O337   2.065       .  S
Fe331       O344   2.076       .  S
Fe331       O336   2.092       .  S
Fe331       O342   1.939       .  S
Fe332       O335   2.095       .  S
Fe332       O339   2.052       .  S
Fe332       O343   2.092       .  S
Fe332       O348   2.021       .  S
Fe332       O342   1.942       .  S
Fe333       O351   2.051       .  S
Fe333       O338   2.098       .  S
Fe333       O345   2.093       .  S
Fe333       O334   2.064       .  S
Fe333       O342   1.940       .  S
O334        C341   1.266       .  A
O335        C349   1.271       .  A
O336        C341   1.273       .  A
O337        C340   1.276       .  A
O338        C350   1.278       .  A
O339        C352   1.267       .  A
C340        O345   1.278       .  A
C340        C593   1.491       .  S
C341        C509   1.487       .  S
O343        C346   1.273       .  A
O344        C346   1.274       .  A
C346        C353   1.496       .  S
O347        C352   1.278       .  A
O348        C350   1.265       .  A
C349        O351   1.266       .  A
C349        C524   1.500       .  S
C350        C557   1.470       .  S
C352        C368   1.493       .  S
C353        C354   1.404       .  A
C353        C358   1.420       .  A
C354        C355   1.404       .  A
C354        H363   1.084       .  S
C355        C356   1.423   1_556  A
C355        S359   1.802       .  S
C356        C357   1.405       .  A
C357        C358   1.406   1_554  A
C357        H364   1.082       .  S
C358        S360   1.809       .  S
S359        H362   1.408   1_556  S
S360        H361   1.406   1_556  S
C365        C366   1.405       .  A
C365        C370   1.417       .  A
C366        C367   1.402       .  A
C366        H375   1.084       .  S
C367        C368   1.420       .  A
C367        S371   1.802       .  S
C368        C369   1.406       .  A
C369        C370   1.401       .  A
C369        H376   1.084       .  S
C370        S372   1.803       .  S
S371        H374   1.408       .  S
S372        H373   1.408       .  S
C377        C378   1.406       .  A
C377        C382   1.417       .  A
C378        C379   1.402       .  A
C378        H387   1.083       .  S
C379        C380   1.419       .  A
C379        S383   1.801       .  S
C380        C381   1.408       .  A
C381        C382   1.405       .  A
C381        H388   1.082       .  S
C382        S384   1.809       .  S
S383        H386   1.408       .  S
S384        H385   1.407       .  S
C389        C390   1.407       .  A
C389        C394   1.414       .  A
C390        C391   1.400   1_556  A
C390        H399   1.084       .  S
C391        C392   1.416       .  A
C391        S395   1.803       .  S
C392        C393   1.408   1_554  A
C393        C394   1.401       .  A
C393        H400   1.083   1_556  S
C394        S396   1.803       .  S
S395        H398   1.408       .  S
S396        H397   1.407       .  S
C401       C1181   1.483       .  S
C401        C402   1.404       .  A
C401        C406   1.413       .  A
C402        C403   1.406       .  A
C402        H411   1.084       .  S
C403        C404   1.423       .  A
C403        S407   1.801       .  S
C404        C405   1.407       .  A
C405        C406   1.395       .  A
C405        H412   1.084       .  S
C406        S408   1.804       .  S
S407        H410   1.408       .  S
S408        H409   1.404       .  S
C413        C414   1.408       .  A
C413        C418   1.422       .  A
C414        C415   1.399       .  A
C414        H423   1.084       .  S
C415        C416   1.413       .  A
C415        S419   1.803       .  S
C416        C417   1.403       .  A
C417        C418   1.406       .  A
C417        H424   1.084       .  S
C418        S420   1.800       .  S
S419        H422   1.406       .  S
S420        H421   1.407       .  S
C425        C426   1.402       .  A
C425        C430   1.417   1_556  A
C426        C427   1.397       .  A
C426        H435   1.084       .  S
C427        C428   1.414   1_556  A
C427        S431   1.802       .  S
C428        C429   1.403       .  A
C429        C430   1.400       .  A
C429        H436   1.084       .  S
C430        S432   1.805       .  S
S431        H434   1.407   1_556  S
S432        H433   1.407   1_554  S
C437        C438   1.412       .  A
C437        C442   1.411       .  A
C438        C439   1.401   1_554  A
C438        H447   1.084       .  S
C439        C440   1.410       .  A
C439        S443   1.803       .  S
C440        C441   1.407       .  A
C441        C442   1.395   1_556  A
C441        H448   1.084       .  S
C442        S444   1.801       .  S
S443        H446   1.407       .  S
S444        H445   1.405       .  S
C449        C450   1.405   1_554  A
C449       C1382   1.411       .  A
C450        C451   1.406       .  A
C450        H459   1.083   1_556  S
C451       C1380   1.421       .  A
C451        S455   1.811       .  S
C452        C453   1.411       .  A
C452       C1379   1.421   1_545  A
C453        C454   1.402   1_556  A
C453        H460   1.083       .  S
C454       C1377   1.411   1_545  A
C454        S456   1.802       .  S
S455        H458   1.407       .  S
S456        H457   1.407       .  S
C461        C462   1.408       .  A
C461        C466   1.418       .  A
C462        C463   1.403       .  A
C462        H471   1.084       .  S
C463        C464   1.414       .  A
C463        S467   1.803       .  S
C464        C465   1.403       .  A
C465        C466   1.400       .  A
C465        H472   1.084       .  S
C466        S468   1.805       .  S
S467        H470   1.407       .  S
S468        H469   1.408       .  S
C473       C1159   1.482   1_545  S
C473        C474   1.405       .  A
C473        C478   1.412       .  A
C474        C475   1.402       .  A
C474        H483   1.084       .  S
C475        C476   1.416       .  A
C475        S479   1.804       .  S
C476        C477   1.408       .  A
C477        C478   1.401       .  A
C477        H484   1.084       .  S
C478       S1408   1.800       .  S
S479        H482   1.408       .  S
S480       C1406   1.802       .  S
S480        H481   1.406       .  S
C485        C486   1.408       .  A
C485        C490   1.419       .  A
C486        C487   1.402   1_655  A
C486        H495   1.084       .  S
C487        C488   1.417       .  A
C487        S491   1.803       .  S
C488        C489   1.406       .  A
C489        C490   1.402   1_455  A
C489        H496   1.084       .  S
C490        S492   1.801       .  S
S491        H494   1.408       .  S
S492        H493   1.408       .  S
C497        C498   1.402       .  A
C497        C502   1.413       .  A
C498        C499   1.397       .  A
C498        H507   1.084       .  S
C499        C500   1.412   1_556  A
C499        S503   1.805       .  S
C500        C501   1.402       .  A
C501        C502   1.397   1_554  A
C501        H508   1.085       .  S
C502        S504   1.805   1_556  S
S503        H506   1.405   1_556  S
S504        H505   1.406   1_554  S
C509        C510   1.404       .  A
C509        C514   1.412       .  A
C510        C511   1.407       .  A
C510        H519   1.084       .  S
C511        C512   1.422       .  A
C511        S515   1.800       .  S
C512        C513   1.410       .  A
C513        C514   1.399       .  A
C513        H520   1.084       .  S
C514        S516   1.804       .  S
S515        H518   1.407       .  S
S516        H517   1.406       .  S
C521       C1136   1.487       .  S
C521        C522   1.404       .  A
C521        C526   1.413       .  A
C522        C523   1.407       .  A
C522        H531   1.084       .  S
C523        C524   1.423       .  A
C523        S527   1.801       .  S
C524        C525   1.409       .  A
C525        C526   1.399       .  A
C525        H532   1.083       .  S
C526        S528   1.804       .  S
S527        H530   1.408       .  S
S528       H1457   1.406       .  S
H529       S1456   1.406   1_545  S
C533        C534   1.406       .  A
C533        C538   1.418       .  A
C534        C535   1.402   1_655  A
C534        H543   1.083       .  S
C535        C536   1.419       .  A
C535        S539   1.801       .  S
C536        C537   1.408       .  A
C537        C538   1.406   1_455  A
C537        H544   1.082       .  S
C538        S540   1.810       .  S
S539        H542   1.408       .  S
S540        H541   1.407       .  S
C545        C546   1.408       .  A
C545       C1478   1.416   1_545  A
C546        C547   1.402   1_556  A
C546        H555   1.084       .  S
C547       C1476   1.416   1_545  A
C547        S551   1.803       .  S
C548        C549   1.409   1_554  A
C548       C1475   1.415       .  A
C549        C550   1.408       .  A
C549        H556   1.082   1_556  S
C550       C1473   1.416       .  A
C550        S552   1.808       .  S
S551       H1482   1.408       .  S
S552       H1481   1.407       .  S
H553       S1480   1.407       .  S
H554       S1479   1.407       .  S
C557        C558   1.408       .  A
C557        C562   1.407       .  A
C558        C559   1.397   1_556  A
C558        H567   1.083       .  S
C559        C560   1.408       .  A
C559        S563   1.808       .  S
C560        C561   1.410       .  A
C561        C562   1.395   1_554  A
C561        H568   1.084       .  S
C562        S564   1.803       .  S
S563        H566   1.407       .  S
S564        H565   1.407       .  S
C569       C1114   1.480   1_545  S
C569        C570   1.403       .  A
C569        C574   1.413       .  A
C570        C571   1.398       .  A
C570        H579   1.084       .  S
C571        C572   1.416       .  A
C571        S575   1.804       .  S
C572        C573   1.410       .  A
C573        C574   1.404       .  A
C573        H580   1.084       .  S
C574       S1504   1.803   1_545  S
S575        H578   1.408       .  S
S576       C1502   1.803       .  S
S576        H577   1.406       .  S
C581        C582   1.410       .  A
C581        C586   1.416       .  A
C582        C583   1.407       .  A
C582        H591   1.084       .  S
C583        C584   1.414       .  A
C583        S587   1.803       .  S
C584        C585   1.403       .  A
C585        C586   1.399       .  A
C585        H592   1.083       .  S
C586        S588   1.804       .  S
S587        H590   1.406       .  S
S588        H589   1.408       .  S
C593        C594   1.405       .  A
C593        C598   1.418       .  A
C594        C595   1.399       .  A
C594        H603   1.084       .  S
C595        C596   1.418       .  A
C595        S599   1.804       .  S
C596        C597   1.406       .  A
C597        C598   1.406       .  A
C597        H604   1.082       .  S
C598        S600   1.809       .  S
S599        H602   1.405       .  S
S600        H601   1.407       .  S
C605        C606   1.405       .  A
C605        C610   1.416       .  A
C606        C607   1.404       .  A
C606        H615   1.084       .  S
C607        C608   1.417       .  A
C607        S611   1.803       .  S
C608        C609   1.406       .  A
C609        C610   1.402       .  A
C609        H616   1.084       .  S
C610        S612   1.804       .  S
S611        H614   1.405       .  S
S612        H613   1.407       .  S
C617        C618   1.413       .  A
C617        C622   1.420       .  A
C618        C619   1.403       .  A
C618        H627   1.083       .  S
C619        C620   1.411       .  A
C619        S623   1.803       .  S
C620        C621   1.404       .  A
C621        C622   1.401       .  A
C621        H628   1.084       .  S
C622        S624   1.802       .  S
S623        H626   1.407       .  S
S624        H625   1.408       .  S
C629        C630   1.405       .  A
C629        C634   1.418       .  A
C630        C631   1.399       .  A
C630        H639   1.084       .  S
C631        C632   1.419       .  A
C631        S635   1.804       .  S
C632        C633   1.406       .  A
C633        C634   1.401       .  A
C633        H640   1.084       .  S
C634        S636   1.801       .  S
S635        H638   1.405       .  S
S636        H637   1.403       .  S
C641        C642   1.405       .  A
C641        C646   1.416       .  A
C642        C643   1.400       .  A
C642        H651   1.084       .  S
C643        C644   1.420       .  A
C643        S647   1.801       .  S
C644        C645   1.407       .  A
C645        C646   1.401       .  A
C645        H652   1.084       .  S
C646        S648   1.803       .  S
S647        H650   1.408       .  S
S648        H649   1.408       .  S
C653        C654   1.406       .  A
C653        C658   1.417       .  A
C654        C655   1.401       .  A
C654        H663   1.084       .  S
C655        C656   1.417       .  A
C655        S659   1.798       .  S
C656        C657   1.407       .  A
C657        C658   1.398       .  A
C657        H664   1.084       .  S
C658        S660   1.804       .  S
S659        H662   1.407       .  S
S660        H661   1.408       .  S
C665        C666   1.405       .  A
C665        C670   1.413       .  A
C666        C667   1.399       .  A
C666        H675   1.084       .  S
C667        C668   1.419       .  A
C667        S671   1.801       .  S
C668        C669   1.408       .  A
C669        C670   1.402       .  A
C669        H676   1.084       .  S
C670        S672   1.803       .  S
S671        H674   1.408       .  S
S672        H673   1.407       .  S
C677        C678   1.410       .  A
C677        C682   1.416       .  A
C678        C679   1.401       .  A
C678        H687   1.084       .  S
C679        C680   1.412       .  A
C679        S683   1.802       .  S
C680        C681   1.407       .  A
C681        C682   1.398       .  A
C681        H688   1.084       .  S
C682        S684   1.803       .  S
S683        H686   1.407       .  S
S684        H685   1.408       .  S
C689        C690   1.406       .  A
C689        C694   1.417       .  A
C690        C691   1.405       .  A
C690        H699   1.084       .  S
C691        C692   1.419       .  A
C691        S695   1.800       .  S
C692        C693   1.407       .  A
C693        C694   1.401       .  A
C693        H700   1.084       .  S
C694        S696   1.804       .  S
S695        H698   1.408       .  S
S696        H697   1.408       .  S
C701        C702   1.407       .  A
C701        C706   1.411       .  A
C702        C703   1.401       .  A
C702        H711   1.084       .  S
C703        C704   1.412       .  A
C703        S707   1.807       .  S
C704       C1004   1.473       .  S
C704        C705   1.404       .  A
C705        C706   1.401       .  A
C705       H1640   1.084       .  S
C706        S708   1.801       .  S
S707        H710   1.404       .  S
S708        H709   1.407       .  S
H712       C1633   1.084       .  S
C713        C714   1.408       .  A
C713        C718   1.424       .  A
C714        C715   1.399       .  A
C714        H723   1.084       .  S
C715        C716   1.415       .  A
C715        S719   1.804       .  S
C716        C717   1.403       .  A
C717        C718   1.407       .  A
C717        H724   1.084       .  S
C718        S720   1.801       .  S
S719        H722   1.406       .  S
S720        H721   1.408       .  S
C725        C726   1.409       .  A
C725        C730   1.407       .  A
C726        C727   1.396       .  A
C726        H735   1.084       .  S
C727        C728   1.406       .  A
C727        S731   1.803       .  S
C728        C729   1.409       .  A
C729        C730   1.396       .  A
C729        H736   1.084       .  S
C730        S732   1.803       .  S
S731        H734   1.407       .  S
S732        H733   1.405       .  S
C737        C738   1.405       .  A
C737        C742   1.416       .  A
C738        C739   1.400       .  A
C738        H747   1.084       .  S
C739        C740   1.414       .  A
C739        S743   1.804       .  S
C740        C741   1.404       .  A
C741        C742   1.404       .  A
C741        H748   1.083       .  S
C742        S744   1.801       .  S
S743        H746   1.405       .  S
S744        H745   1.406       .  S
C749        C750   1.410       .  A
C749        C754   1.411       .  A
C750        C751   1.397       .  A
C750        H759   1.084       .  S
C751        C752   1.411       .  A
C751        S755   1.803       .  S
C752        C753   1.409       .  A
C753        C754   1.396       .  A
C753        H760   1.084       .  S
C754        S756   1.803       .  S
S755        H758   1.408       .  S
S756        H757   1.405       .  S
C761        C766   1.423       .  A
C761       C1690   1.405       .  A
C762        C763   1.401       .  A
C762       C1689   1.405   1_545  A
C762        H771   1.084       .  S
C763        C764   1.419       .  A
C763        S767   1.800       .  S
C764       C1693   1.404   1_545  A
C765        C766   1.404       .  A
C765       C1692   1.404       .  A
C765        H772   1.084       .  S
C766        S768   1.801       .  S
S767        H770   1.407       .  S
S768        H769   1.408       .  S
C773        C774   1.408       .  A
C773        C778   1.423       .  A
C774        C775   1.397       .  A
C774        H783   1.083       .  S
C775        C776   1.414       .  A
C775        S779   1.804       .  S
C776        C777   1.405       .  A
C777        C778   1.407       .  A
C777        H784   1.084       .  S
C778        S780   1.801       .  S
S779        H782   1.406       .  S
S780        H781   1.408       .  S
C785        C982   1.472   1_545  S
C785        C786   1.402       .  A
C785        C790   1.411       .  A
C786        C787   1.399       .  A
C786        H795   1.084       .  S
C787        C788   1.414       .  A
C787        S791   1.802       .  S
C788        C789   1.408       .  A
C789        C790   1.401       .  A
C789        H796   1.084       .  S
C790       S1720   1.804       .  S
S791        H794   1.407       .  S
S792       C1718   1.804       .  S
S792        H793   1.406       .  S
C797        C798   1.406       .  A
C797        C802   1.417       .  A
C798        C799   1.403       .  A
C798        H807   1.084       .  S
C799        C800   1.417       .  A
C799        S803   1.805       .  S
C800        C801   1.405       .  A
C801        C802   1.402       .  A
C801        H808   1.084       .  S
C802        S804   1.803       .  S
S803        H806   1.407       .  S
S804        H805   1.404       .  S
C809        C810   1.410       .  A
C809        C814   1.418       .  A
C810        C811   1.405   1_655  A
C810        H819   1.082       .  S
C811        C812   1.417       .  A
C811        S815   1.811       .  S
C812        C813   1.408       .  A
C813        C814   1.402   1_455  A
C813        H820   1.083       .  S
C814        S816   1.801       .  S
S815        H818   1.406       .  S
S816        H817   1.408       .  S
C821        C822   1.403       .  A
C821        C826   1.412       .  A
C822        C823   1.400       .  A
C822        H831   1.083       .  S
C823        C824   1.414       .  A
C823        S827   1.810       .  S
C824        C825   1.402       .  A
C825        C826   1.398       .  A
C825        H832   1.083       .  S
C826        S828   1.808       .  S
S827        H830   1.407       .  S
S828        H829   1.407       .  S
C833        C834   1.404       .  A
C833        C838   1.413       .  A
C834        C835   1.410       .  A
C834        H843   1.084       .  S
C835        C836   1.424       .  A
C835        S839   1.800       .  S
C836        C837   1.409       .  A
C837        C838   1.402       .  A
C837        H844   1.084       .  S
C838        S840   1.801       .  S
S839        H842   1.407       .  S
S840        H841   1.405       .  S
C845        C961   1.484       .  S
C845        C846   1.404       .  A
C845        C850   1.413       .  A
C846        C847   1.401       .  A
C846        H855   1.083       .  S
C847        C848   1.416       .  A
C847        S851   1.804       .  S
C848        C849   1.411       .  A
C849        C850   1.406       .  A
C849        H856   1.083       .  S
C850        S852   1.804       .  S
S851        H854   1.408       .  S
S852       H1781   1.407       .  S
H853       S1780   1.406   1_545  S
C857        C858   1.406       .  A
C857        C862   1.416       .  A
C858        C859   1.404       .  A
C858        H867   1.083       .  S
C859        C860   1.418       .  A
C859        S863   1.802       .  S
C860        C861   1.404       .  A
C861        C862   1.398       .  A
C861        H868   1.084       .  S
C862        S864   1.803       .  S
S863        H866   1.406       .  S
S864        H865   1.407       .  S
C869        C870   1.407       .  A
C869        C874   1.419       .  A
C870        C871   1.403   1_655  A
C870        H879   1.083       .  S
C871        C872   1.420       .  A
C871        S875   1.801       .  S
C872        C873   1.408       .  A
C873        C874   1.400   1_455  A
C873        H880   1.084       .  S
C874        S876   1.804       .  S
S875        H878   1.408       .  S
S876        H877   1.403       .  S
C881        C882   1.405       .  A
C881       C1814   1.412       .  A
C882        C883   1.404       .  A
C882        H891   1.084       .  S
C883       C1812   1.421       .  A
C883        S887   1.802       .  S
C884        C885   1.410       .  A
C884       C1811   1.419   1_545  A
C885        C886   1.403       .  A
C885        H892   1.083       .  S
C886       C1809   1.415   1_545  A
C886        S888   1.803       .  S
S887        H890   1.407       .  S
S888        H889   1.407       .  S
C893        C894   1.398       .  A
C893        C898   1.419       .  A
C894        C895   1.400       .  A
C894        H903   1.083       .  S
C895        C896   1.426       .  A
C895        S899   1.812       .  S
C896        C897   1.399       .  A
C897        C898   1.391       .  A
C897        H904   1.084       .  S
C898        S900   1.805       .  S
S899        H902   1.407       .  S
S900        H901   1.407       .  S
C905        C939   1.479   1_545  S
C905        C906   1.401       .  A
C905        C910   1.411       .  A
C906        C907   1.409       .  A
C906        H915   1.083       .  S
C907        C908   1.423       .  A
C907        S911   1.809       .  S
C908        C909   1.405       .  A
C909        C910   1.397       .  A
C909        H916   1.084       .  S
C910        S912   1.802       .  S
S911        H914   1.407       .  S
S912       H1841   1.404   1_545  S
H913       S1840   1.405       .  S
C917        C918   1.410       .  A
C917        C922   1.421       .  A
C918        C919   1.401       .  A
C918        H927   1.084       .  S
C919        C920   1.413       .  A
C919        S923   1.804       .  S
C920        C921   1.404       .  A
C921        C922   1.406       .  A
C921        H928   1.084       .  S
C922        S924   1.800       .  S
S923        H926   1.406       .  S
S924        H925   1.407       .  S
Fe929       O945   2.091       .  S
Fe929       O935   2.056       .  S
Fe929       O942   2.062       .  S
Fe929       O934   2.080       .  S
Fe929       O940   1.936       .  S
Fe930       O933   2.109       .  S
Fe930       O937   2.062       .  S
Fe930       O941   2.103       .  S
Fe930       O946   2.021       .  S
Fe930       O940   1.943       .  S
Fe931       O949   2.040       .  S
Fe931       O936   2.105       .  S
Fe931       O943   2.105       .  S
Fe931       O932   2.067       .  S
Fe931       O940   1.934       .  S
O932        C939   1.266       .  A
O933        C947   1.275       .  A
O934        C939   1.269       .  A
O935        C938   1.275       .  A
O936        C948   1.282       .  A
O937        C950   1.270       .  A
C938        O943   1.281       .  A
C938       C1785   1.490       .  S
O941        C944   1.278       .  A
O942        C944   1.273       .  A
C944       C1809   1.493       .  S
O945        C950   1.272       .  A
O946        C948   1.262       .  A
C947        O949   1.264       .  A
C947       C1845   1.501       .  S
C948       C1824   1.481       .  S
C950       C1797   1.495       .  S
Fe951       O967   2.088       .  S
Fe951       O957   2.063       .  S
Fe951       O964   2.071       .  S
Fe951       O956   2.082       .  S
Fe951       O962   1.942       .  S
Fe952       O955   2.108       .  S
Fe952       O959   2.067       .  S
Fe952       O963   2.095       .  S
Fe952       O968   2.034       .  S
Fe952       O962   1.952       .  S
Fe953       O971   2.053       .  S
Fe953       O958   2.092       .  S
Fe953       O965   2.097       .  S
Fe953       O954   2.070       .  S
Fe953       O962   1.942       .  S
O954        C961   1.267       .  A
O955        C969   1.275       .  A
O956        C961   1.270       .  A
O957        C960   1.275       .  A
O958        C970   1.278       .  A
O959        C972   1.271       .  A
C960        O965   1.279       .  A
C960       C1725   1.488       .  S
O963        C966   1.275       .  A
O964        C966   1.271       .  A
C966       C1812   1.502       .  S
O967        C972   1.275       .  A
O968        C970   1.266       .  A
C969        O971   1.268       .  A
C969       C1764   1.500       .  S
C970       C1749   1.472       .  S
C972       C1737   1.502       .  S
Fe973       O989   2.071       .  S
Fe973       O979   2.076       .  S
Fe973       O986   2.088       .  S
Fe973       O978   2.060       .  S
Fe973       O984   1.942       .  S
Fe974       O977   2.034       .  S
Fe974       O981   2.084       .  S
Fe974       O985   2.061       .  S
Fe974       O990   2.096       .  S
Fe974       O984   1.946       .  S
Fe975       O993   2.100       .  S
Fe975       O980   2.049       .  S
Fe975       O987   2.062       .  S
Fe975       O976   2.103       .  S
Fe975       O984   1.938       .  S
O976        C983   1.281       .  A
O977        C991   1.267       .  A
O978        C983   1.275       .  A
O979        C982   1.268       .  A
O980        C992   1.266       .  A
O981        C994   1.270       .  A
C982        O987   1.265       .  A
C983       C1665   1.488       .  S
O985        C988   1.270       .  A
O986        C988   1.275       .  A
C988       C1800   1.498       .  S
O989        C994   1.273       .  A
O990        C992   1.272       .  A
C991        O993   1.279       .  A
C991       C1677   1.483       .  S
C992       C1701   1.500       .  S
C994       C1689   1.497       .  S
Fe995      O1011   2.071       .  S
Fe995      O1001   2.078       .  S
Fe995      O1008   2.094       .  S
Fe995      O1000   2.062       .  S
Fe995      O1006   1.947       .  S
Fe996       O999   2.023       .  S
Fe996      O1003   2.089       .  S
Fe996      O1007   2.059       .  S
Fe996      O1012   2.089       .  S
Fe996      O1006   1.948       .  S
Fe997      O1015   2.100       .  S
Fe997      O1002   2.053       .  S
Fe997      O1009   2.065       .  S
Fe997       O998   2.100       .  S
Fe997      O1006   1.944       .  S
O998       C1005   1.281       .  A
O999       C1013   1.265       .  A
O1000      C1005   1.275       .  A
O1001      C1004   1.268       .  A
O1002      C1014   1.267       .  A
O1003      C1016   1.272       .  A
C1004      O1009   1.265       .  A
C1005      C1617   1.494       .  S
O1007      C1010   1.270       .  A
O1008      C1010   1.274       .  A
C1010      C1740   1.497       .  S
O1011      C1016   1.272       .  A
O1012      C1014   1.269       .  A
C1013      O1015   1.280       .  A
C1013      C1653   1.470       .  S
C1014      C1641   1.501       .  S
C1016      C1692   1.492       .  S
Fe1017     O1033   2.098       .  S
Fe1017     O1023   2.053       .  S
Fe1017     O1030   2.060       .  S
Fe1017     O1022   2.084       .  S
Fe1017     O1028   1.939       .  S
Fe1018     O1021   2.086       .  S
Fe1018     O1025   2.049       .  S
Fe1018     O1029   2.090       .  S
Fe1018     O1034   2.025       .  S
Fe1018     O1028   1.944       .  S
Fe1019     O1037   2.054       .  S
Fe1019     O1024   2.101       .  S
Fe1019     O1031   2.098       .  S
Fe1019     O1020   2.067       .  S
Fe1019     O1028   1.938       .  S
O1020      C1027   1.267       .  A
O1021      C1035   1.272       .  A
O1022      C1027   1.271       .  A
O1023      C1026   1.275       .  A
O1024      C1036   1.279       .  A
O1025      C1038   1.267       .  A
C1026      O1031   1.279       .  A
C1026      C1584   1.491       .  S
C1027      C1704   1.488       .  S
O1029      C1032   1.274       .  A
O1030      C1032   1.270       .  A
C1032      C1605   1.490       .  S
O1033      C1038   1.275       .  A
O1034      C1036   1.265       .  A
C1035      O1037   1.266       .  A
C1035      C1716   1.484       .  S
C1036      C1656   1.470       .  S
C1038      C1593   1.486       .  S
Fe1039     O1055   2.095       .  S
Fe1039     O1045   2.061       .  S
Fe1039     O1052   2.070       .  S
Fe1039     O1044   2.081       .  S
Fe1039     O1050   1.937       .  S
Fe1040     O1043   2.078       .  S
Fe1040     O1047   2.057       .  S
Fe1040     O1051   2.079       .  S
Fe1040     O1056   2.037       .  S
Fe1040     O1050   1.946       .  S
Fe1041     O1059   2.058       .  S
Fe1041     O1046   2.101       .  S
Fe1041     O1053   2.097       .  S
Fe1041     O1042   2.075       .  S
Fe1041     O1050   1.941       .  S
O1042      C1049   1.269       .  A
O1043      C1057   1.270       .  A
O1044      C1049   1.271       .  A
O1045      C1048   1.276       .  A
O1046      C1058   1.279       .  A
O1047      C1060   1.270       .  A
C1048      O1053   1.278       .  A
C1048      C1557   1.496       .  S
C1049      C1644   1.489       .  S
O1051      C1054   1.271       .  A
O1052      C1054   1.271       .  A
C1054      C1608   1.488       .  S
O1055      C1060   1.275       .  A
O1056      C1058   1.269       .  A
C1057      O1059   1.267       .  A
C1057      C1629   1.478       .  S
C1058      C1680   1.481       .  S
C1060      C1569   1.489       .  S
Fe1061     O1077   2.064       .  S
Fe1061     O1067   2.084       .  S
Fe1061     O1074   2.092       .  S
Fe1061     O1066   2.059       .  S
Fe1061     O1072   1.942       .  S
Fe1062     O1065   2.034       .  S
Fe1062     O1069   2.089       .  S
Fe1062     O1073   2.055       .  S
Fe1062     O1078   2.088       .  S
Fe1062     O1072   1.949       .  S
Fe1063     O1081   2.093       .  S
Fe1063     O1068   2.052       .  S
Fe1063     O1075   2.064       .  S
Fe1063     O1064   2.098       .  S
Fe1063     O1072   1.943       .  S
O1064      C1071   1.280       .  A
O1065      C1079   1.267       .  A
O1066      C1071   1.274       .  A
O1067      C1070   1.271       .  A
O1068      C1080   1.267       .  A
O1069      C1082   1.273       .  A
C1070      O1075   1.266       .  A
C1070      C1848   1.489       .  S
C1071      C1533   1.486       .  S
O1073      C1076   1.267       .  A
O1074      C1076   1.275       .  A
C1076      C1596   1.491       .  S
O1077      C1082   1.270       .  A
O1078      C1080   1.271       .  A
C1079      O1081   1.278       .  A
C1079      C1752   1.471       .  S
C1080      C1836   1.492       .  S
C1082      C1545   1.496       .  S
Fe1083     O1099   2.063       .  S
Fe1083     O1089   2.105       .  S
Fe1083     O1096   2.111       .  S
Fe1083     O1088   2.049       .  S
Fe1083     O1094   1.942       .  S
Fe1084     O1087   2.022       .  S
Fe1084     O1091   2.086       .  S
Fe1084     O1095   2.048       .  S
Fe1084     O1100   2.099       .  S
Fe1084     O1094   1.940       .  S
Fe1085     O1103   2.107       .  S
Fe1085     O1090   2.053       .  S
Fe1085     O1097   2.069       .  S
Fe1085     O1086   2.106       .  S
Fe1085     O1094   1.940       .  S
O1086      C1093   1.282       .  A
O1087      C1101   1.263       .  A
O1088      C1093   1.271       .  A
O1089      C1092   1.275       .  A
O1090      C1102   1.266       .  A
O1091      C1104   1.272       .  A
C1092      O1097   1.267       .  A
C1092      C1761   1.489       .  S
C1093      C1524   1.484       .  S
O1095      C1098   1.267       .  A
O1096      C1098   1.280       .  A
C1098      C1572   1.492       .  S
O1099      C1104   1.270       .  A
O1100      C1102   1.273       .  A
C1101      O1103   1.280       .  A
C1101      C1821   1.477       .  S
C1102      C1776   1.496       .  S
C1104      C1548   1.485       .  S
Fe1105     O1121   2.064       .  S
Fe1105     O1111   2.077       .  S
Fe1105     O1118   2.090       .  S
Fe1105     O1110   2.057       .  S
Fe1105     O1116   1.942       .  S
Fe1106     O1109   2.033       .  S
Fe1106     O1113   2.098       .  S
Fe1106     O1117   2.066       .  S
Fe1106     O1122   2.098       .  S
Fe1106     O1116   1.952       .  S
Fe1107     O1125   2.093       .  S
Fe1107     O1112   2.046       .  S
Fe1107     O1119   2.065       .  S
Fe1107     O1108   2.103       .  S
Fe1107     O1116   1.944       .  S
O1108      C1115   1.280       .  A
O1109      C1123   1.267       .  A
O1110      C1115   1.275       .  A
O1111      C1114   1.268       .  A
O1112      C1124   1.266       .  A
O1113      C1126   1.277       .  A
C1114      O1119   1.265       .  A
C1115      C1788   1.490       .  S
O1117      C1120   1.270       .  A
O1118      C1120   1.273       .  A
C1120      C1461   1.498       .  S
O1121      C1126   1.271       .  A
O1122      C1124   1.275       .  A
C1123      O1125   1.277       .  A
C1123      C1488   1.479       .  S
C1124      C1509   1.491       .  S
C1126      C1476   1.496       .  S
Fe1127     O1143   2.071       .  S
Fe1127     O1133   2.087       .  S
Fe1127     O1140   2.096       .  S
Fe1127     O1132   2.062       .  S
Fe1127     O1138   1.940       .  S
Fe1128     O1131   2.035       .  S
Fe1128     O1135   2.089       .  S
Fe1128     O1139   2.058       .  S
Fe1128     O1144   2.095       .  S
Fe1128     O1138   1.947       .  S
Fe1129     O1147   2.099       .  S
Fe1129     O1134   2.044       .  S
Fe1129     O1141   2.065       .  S
Fe1129     O1130   2.097       .  S
Fe1129     O1138   1.940       .  S
O1130      C1137   1.279       .  A
O1131      C1145   1.266       .  A
O1132      C1137   1.274       .  A
O1133      C1136   1.272       .  A
O1134      C1146   1.265       .  A
O1135      C1148   1.274       .  A
C1136      O1141   1.267       .  A
C1137      C1728   1.487       .  S
O1139      C1142   1.268       .  A
O1140      C1142   1.276       .  A
C1142      C1413   1.496       .  S
O1143      C1148   1.272       .  A
O1144      C1146   1.272       .  A
C1145      O1147   1.278       .  A
C1145      C1425   1.467       .  S
C1146      C1440   1.495       .  S
C1148      C1473   1.497       .  S
Fe1149     O1165   2.095       .  S
Fe1149     O1155   2.056       .  S
Fe1149     O1162   2.067       .  S
Fe1149     O1154   2.087       .  S
Fe1149     O1160   1.949       .  S
Fe1150     O1153   2.090       .  S
Fe1150     O1157   2.058       .  S
Fe1150     O1161   2.089       .  S
Fe1150     O1166   2.035       .  S
Fe1150     O1160   1.952       .  S
Fe1151     O1169   2.043       .  S
Fe1151     O1156   2.097       .  S
Fe1151     O1163   2.103       .  S
Fe1151     O1152   2.064       .  S
Fe1151     O1160   1.945       .  S
O1152      C1159   1.265       .  A
O1153      C1167   1.274       .  A
O1154      C1159   1.270       .  A
O1155      C1158   1.274       .  A
O1156      C1168   1.278       .  A
O1157      C1170   1.266       .  A
C1158      O1163   1.281       .  A
C1158      C1668   1.484       .  S
O1161      C1164   1.275       .  A
O1162      C1164   1.273       .  A
C1164      C1377   1.487       .  S
O1165      C1170   1.275       .  A
O1166      C1168   1.266       .  A
C1167      O1169   1.265       .  A
C1167      C1389   1.490       .  S
C1168      C1365   1.481       .  S
C1170      C1464   1.500       .  S
Fe1171     O1187   2.093       .  S
Fe1171     O1177   2.063       .  S
Fe1171     O1184   2.063       .  S
Fe1171     O1176   2.078       .  S
Fe1171     O1182   1.939       .  S
Fe1172     O1175   2.096       .  S
Fe1172     O1179   2.059       .  S
Fe1172     O1183   2.094       .  S
Fe1172     O1188   2.035       .  S
Fe1172     O1182   1.947       .  S
Fe1173     O1191   2.045       .  S
Fe1173     O1178   2.102       .  S
Fe1173     O1185   2.101       .  S
Fe1173     O1174   2.061       .  S
Fe1173     O1182   1.938       .  S
O1174      C1181   1.266       .  A
O1175      C1189   1.272       .  A
O1176      C1181   1.270       .  A
O1177      C1180   1.276       .  A
O1178      C1190   1.280       .  A
O1179      C1192   1.270       .  A
C1180      O1185   1.278       .  A
C1180      C1620   1.498       .  S
O1183      C1186   1.275       .  A
O1184      C1186   1.270       .  A
C1186      C1380   1.500       .  S
O1187      C1192   1.274       .  A
O1188      C1190   1.266       .  A
C1189      O1191   1.265       .  A
C1189      C1341   1.495       .  S
C1190      C1353   1.477       .  S
C1192      C1416   1.492       .  S
Fe1193     O1209   2.058       .  S
Fe1193     O1199   2.082       .  S
Fe1193     O1206   2.087       .  S
Fe1193     O1198   2.050       .  S
Fe1193     O1204   1.938       .  S
Fe1194     O1197   2.039       .  S
Fe1194     O1201   2.093       .  S
Fe1194     O1205   2.064       .  S
Fe1194     O1210   2.084       .  S
Fe1194     O1204   1.945       .  S
Fe1195     O1213   2.099       .  S
Fe1195     O1200   2.050       .  S
Fe1195     O1207   2.061       .  S
Fe1195     O1196   2.101       .  S
Fe1195     O1204   1.942       .  S
O1196      C1203   1.281       .  A
O1197      C1211   1.268       .  A
O1198      C1203   1.271       .  A
O1199      C1202   1.270       .  A
O1200      C1212   1.266       .  A
O1201      C1214   1.275       .  A
C1202      O1207   1.266       .  A
C1202      C1392   1.482       .  S
C1203      C1581   1.488       .  S
O1205      C1208   1.270       .  A
O1206      C1208   1.272       .  A
C1208      C1305   1.495       .  S
O1209      C1214   1.270       .  A
O1210      C1212   1.273       .  A
C1211      O1213   1.279       .  A
C1211      C1356   1.476       .  S
C1212      C1404   1.486       .  S
C1214      C1320   1.491       .  S
Fe1215     O1231   2.061       .  S
Fe1215     O1221   2.081       .  S
Fe1215     O1228   2.084       .  S
Fe1215     O1220   2.055       .  S
Fe1215     O1226   1.937       .  S
Fe1216     O1219   2.032       .  S
Fe1216     O1223   2.090       .  S
Fe1216     O1227   2.064       .  S
Fe1216     O1232   2.092       .  S
Fe1216     O1226   1.947       .  S
Fe1217     O1235   2.101       .  S
Fe1217     O1222   2.052       .  S
Fe1217     O1229   2.065       .  S
Fe1217     O1218   2.104       .  S
Fe1217     O1226   1.938       .  S
O1218      C1225   1.281       .  A
O1219      C1233   1.268       .  A
O1220      C1225   1.272       .  A
O1221      C1224   1.270       .  A
O1222      C1234   1.267       .  A
O1223      C1236   1.274       .  A
C1224      O1229   1.266       .  A
C1224      C1344   1.480       .  S
C1225      C1560   1.495       .  S
O1227      C1230   1.271       .  A
O1228      C1230   1.272       .  A
C1230      C1293   1.490       .  S
O1231      C1236   1.271       .  A
O1232      C1234   1.271       .  A
C1233      O1235   1.279       .  A
C1233      C1368   1.475       .  S
C1234      C1332   1.499       .  S
C1236      C1317   1.488       .  S
Fe1237     O1253   2.091       .  S
Fe1237     O1243   2.066       .  S
Fe1237     O1250   2.075       .  S
Fe1237     O1242   2.087       .  S
Fe1237     O1248   1.942       .  S
Fe1238     O1241   2.088       .  S
Fe1238     O1245   2.061       .  S
Fe1238     O1249   2.081       .  S
Fe1238     O1254   2.041       .  S
Fe1238     O1248   1.951       .  S
Fe1239     O1257   2.046       .  S
Fe1239     O1244   2.093       .  S
Fe1239     O1251   2.095       .  S
Fe1239     O1240   2.066       .  S
Fe1239     O1248   1.943       .  S
O1240      C1247   1.266       .  A
O1241      C1255   1.272       .  A
O1242      C1247   1.271       .  A
O1243      C1246   1.275       .  A
O1244      C1256   1.277       .  A
O1245      C1258   1.269       .  A
C1246      O1251   1.278       .  A
C1246      C1536   1.488       .  S
C1247      C1512   1.484       .  S
O1249      C1252   1.269       .  A
O1250      C1252   1.274       .  A
C1252      C1284   1.497       .  S
O1253      C1258   1.276       .  A
O1254      C1256   1.267       .  A
C1255      O1257   1.265       .  A
C1255      C1500   1.486       .  S
C1256      C1428   1.467       .  S
C1258      C1308   1.498       .  S
Fe1259     O1275   2.100       .  S
Fe1259     O1265   2.063       .  S
Fe1259     O1272   2.073       .  S
Fe1259     O1264   2.089       .  S
Fe1259     O1270   1.939       .  S
Fe1260     O1263   2.093       .  S
Fe1260     O1267   2.051       .  S
Fe1260     O1271   2.090       .  S
Fe1260     O1276   2.023       .  S
Fe1260     O1270   1.940       .  S
Fe1261     O1279   2.047       .  S
Fe1261     O1266   2.103       .  S
Fe1261     O1273   2.093       .  S
Fe1261     O1262   2.059       .  S
Fe1261     O1270   1.935       .  S
O1262      C1269   1.266       .  A
O1263      C1277   1.270       .  A
O1264      C1269   1.272       .  A
O1265      C1268   1.275       .  A
O1266      C1278   1.279       .  A
O1267      C1280   1.267       .  A
C1268      O1273   1.279       .  A
C1268      C1521   1.484       .  S
C1269      C1437   1.480       .  S
O1271      C1274   1.272       .  A
O1272      C1274   1.273       .  A
C1274      C1281   1.494       .  S
O1275      C1280   1.278       .  A
O1276      C1278   1.265       .  A
C1277      O1279   1.265       .  A
C1277      C1452   1.498       .  S
C1278      C1485   1.475       .  S
C1280      C1296   1.491       .  S
C1281      C1282   1.403       .  A
C1281      C1286   1.420       .  A
C1282      C1283   1.401       .  A
C1282      H1291   1.084       .  S
C1283      C1284   1.422   1_556  A
C1283      S1287   1.802       .  S
C1284      C1285   1.405       .  A
C1285      C1286   1.406   1_554  A
C1285      H1292   1.082       .  S
C1286      S1288   1.810       .  S
S1287      H1290   1.408   1_556  S
S1288      H1289   1.406   1_556  S
C1293      C1294   1.405       .  A
C1293      C1298   1.417       .  A
C1294      C1295   1.401       .  A
C1294      H1303   1.084       .  S
C1295      C1296   1.421       .  A
C1295      S1299   1.802       .  S
C1296      C1297   1.405       .  A
C1297      C1298   1.399       .  A
C1297      H1304   1.084       .  S
C1298      S1300   1.803       .  S
S1299      H1302   1.408       .  S
S1300      H1301   1.408       .  S
C1305      C1306   1.407       .  A
C1305      C1310   1.417       .  A
C1306      C1307   1.403       .  A
C1306      H1315   1.083       .  S
C1307      C1308   1.419       .  A
C1307      S1311   1.801       .  S
C1308      C1309   1.408       .  A
C1309      C1310   1.404       .  A
C1309      H1316   1.082       .  S
C1310      S1312   1.811       .  S
S1311      H1314   1.408       .  S
S1312      H1313   1.406       .  S
C1317      C1318   1.407       .  A
C1317      C1322   1.414       .  A
C1318      C1319   1.400   1_556  A
C1318      H1327   1.084       .  S
C1319      C1320   1.416       .  A
C1319      S1323   1.803       .  S
C1320      C1321   1.408   1_554  A
C1321      C1322   1.401       .  A
C1321      H1328   1.084   1_556  S
C1322      S1324   1.803       .  S
S1323      H1326   1.408       .  S
S1324      H1325   1.407       .  S
C1329      C1330   1.405       .  A
C1329      C1334   1.415       .  A
C1330      C1331   1.407       .  A
C1330      H1339   1.084       .  S
C1331      C1332   1.423       .  A
C1331      S1335   1.801       .  S
C1332      C1333   1.408       .  A
C1333      C1334   1.396       .  A
C1333      H1340   1.084       .  S
C1334      S1336   1.804       .  S
S1335      H1338   1.408       .  S
S1336      H1337   1.404       .  S
C1341      C1342   1.408       .  A
C1341      C1346   1.422       .  A
C1342      C1343   1.398       .  A
C1342      H1351   1.084       .  S
C1343      C1344   1.412       .  A
C1343      S1347   1.804       .  S
C1344      C1345   1.402       .  A
C1345      C1346   1.405       .  A
C1345      H1352   1.084       .  S
C1346      S1348   1.800       .  S
S1347      H1350   1.405       .  S
S1348      H1349   1.407       .  S
C1353      C1354   1.402       .  A
C1353      C1358   1.417   1_556  A
C1354      C1355   1.396       .  A
C1354      H1363   1.084       .  S
C1355      C1356   1.414   1_556  A
C1355      S1359   1.802       .  S
C1356      C1357   1.403       .  A
C1357      C1358   1.399       .  A
C1357      H1364   1.084       .  S
C1358      S1360   1.805       .  S
S1359      H1362   1.407   1_556  S
S1360      H1361   1.407   1_554  S
C1365      C1366   1.411       .  A
C1365      C1370   1.410       .  A
C1366      C1367   1.399   1_554  A
C1366      H1375   1.084       .  S
C1367      C1368   1.409       .  A
C1367      S1371   1.803       .  S
C1368      C1369   1.407       .  A
C1369      C1370   1.395   1_556  A
C1369      H1376   1.084       .  S
C1370      S1372   1.800       .  S
S1371      H1374   1.407       .  S
S1372      H1373   1.404       .  S
C1377      C1378   1.405   1_554  A
C1378      C1379   1.406       .  A
C1378      H1387   1.083   1_556  S
C1379      S1383   1.811       .  S
C1380      C1381   1.411       .  A
C1381      C1382   1.402   1_556  A
C1381      H1388   1.083       .  S
C1382      S1384   1.803       .  S
S1383      H1386   1.407       .  S
S1384      H1385   1.407       .  S
C1389      C1390   1.409       .  A
C1389      C1394   1.417       .  A
C1390      C1391   1.403       .  A
C1390      H1399   1.084       .  S
C1391      C1392   1.413       .  A
C1391      S1395   1.803       .  S
C1392      C1393   1.404       .  A
C1393      C1394   1.399       .  A
C1393      H1400   1.084       .  S
C1394      S1396   1.805       .  S
S1395      H1398   1.407       .  S
S1396      H1397   1.408       .  S
C1401      C1402   1.405       .  A
C1401      C1406   1.411       .  A
C1402      C1403   1.401       .  A
C1402      H1411   1.083       .  S
C1403      C1404   1.415       .  A
C1403      S1407   1.804       .  S
C1404      C1405   1.409       .  A
C1405      C1406   1.401       .  A
C1405      H1412   1.084       .  S
S1407      H1410   1.407       .  S
S1408      H1409   1.406       .  S
C1413      C1414   1.409       .  A
C1413      C1418   1.419       .  A
C1414      C1415   1.403   1_655  A
C1414      H1423   1.084       .  S
C1415      C1416   1.416       .  A
C1415      S1419   1.803       .  S
C1416      C1417   1.405       .  A
C1417      C1418   1.400   1_455  A
C1417      H1424   1.084       .  S
C1418      S1420   1.801       .  S
S1419      H1422   1.408       .  S
S1420      H1421   1.408       .  S
C1425      C1426   1.402       .  A
C1425      C1430   1.413       .  A
C1426      C1427   1.397       .  A
C1426      H1435   1.084       .  S
C1427      C1428   1.412   1_556  A
C1427      S1431   1.805       .  S
C1428      C1429   1.402       .  A
C1429      C1430   1.397   1_554  A
C1429      H1436   1.085       .  S
C1430      S1432   1.805   1_556  S
S1431      H1434   1.404   1_556  S
S1432      H1433   1.406   1_554  S
C1437      C1438   1.403       .  A
C1437      C1442   1.410       .  A
C1438      C1439   1.409       .  A
C1438      H1447   1.083       .  S
C1439      C1440   1.422       .  A
C1439      S1443   1.809       .  S
C1440      C1441   1.409       .  A
C1441      C1442   1.397       .  A
C1441      H1448   1.084       .  S
C1442      S1444   1.804       .  S
S1443      H1446   1.407       .  S
S1444      H1445   1.406       .  S
C1449      C1450   1.404       .  A
C1449      C1454   1.412       .  A
C1450      C1451   1.406       .  A
C1450      H1459   1.084       .  S
C1451      C1452   1.422       .  A
C1451      S1455   1.801       .  S
C1452      C1453   1.409       .  A
C1453      C1454   1.398       .  A
C1453      H1460   1.083       .  S
C1454      S1456   1.804       .  S
S1455      H1458   1.408       .  S
C1461      C1462   1.406       .  A
C1461      C1466   1.418       .  A
C1462      C1463   1.402   1_655  A
C1462      H1471   1.083       .  S
C1463      C1464   1.420       .  A
C1463      S1467   1.801       .  S
C1464      C1465   1.408       .  A
C1465      C1466   1.406   1_455  A
C1465      H1472   1.082       .  S
C1466      S1468   1.809       .  S
S1467      H1470   1.408       .  S
S1468      H1469   1.407       .  S
C1473      C1474   1.409       .  A
C1474      C1475   1.402   1_556  A
C1474      H1483   1.084       .  S
C1475      S1479   1.803       .  S
C1476      C1477   1.409   1_554  A
C1477      C1478   1.409       .  A
C1477      H1484   1.082   1_556  S
C1478      S1480   1.808       .  S
C1485      C1486   1.409       .  A
C1485      C1490   1.408       .  A
C1486      C1487   1.398   1_556  A
C1486      H1495   1.083       .  S
C1487      C1488   1.410       .  A
C1487      S1491   1.809       .  S
C1488      C1489   1.411       .  A
C1489      C1490   1.397   1_554  A
C1489      H1496   1.084       .  S
C1490      S1492   1.803       .  S
S1491      H1494   1.407       .  S
S1492      H1493   1.407       .  S
C1497      C1498   1.402       .  A
C1497      C1502   1.412       .  A
C1498      C1499   1.398       .  A
C1498      H1507   1.084       .  S
C1499      C1500   1.415       .  A
C1499      S1503   1.804       .  S
C1500      C1501   1.409       .  A
C1501      C1502   1.403       .  A
C1501      H1508   1.084       .  S
S1503      H1506   1.408       .  S
S1504      H1505   1.406       .  S
C1509      C1510   1.410       .  A
C1509      C1514   1.416       .  A
C1510      C1511   1.406       .  A
C1510      H1519   1.084       .  S
C1511      C1512   1.414       .  A
C1511      S1515   1.803       .  S
C1512      C1513   1.403       .  A
C1513      C1514   1.400       .  A
C1513      H1520   1.083       .  S
C1514      S1516   1.804       .  S
S1515      H1518   1.406       .  S
S1516      H1517   1.408       .  S
C1521      C1522   1.403       .  A
C1521      C1526   1.414       .  A
C1522      C1523   1.400       .  A
C1522      H1531   1.084       .  S
C1523      C1524   1.418       .  A
C1523      S1527   1.805       .  S
C1524      C1525   1.404       .  A
C1525      C1526   1.404       .  A
C1525      H1532   1.083       .  S
C1526      S1528   1.806       .  S
S1527      H1530   1.403       .  S
S1528      H1529   1.407       .  S
C1533      C1534   1.404       .  A
C1533      C1538   1.416       .  A
C1534      C1535   1.402       .  A
C1534      H1543   1.084       .  S
C1535      C1536   1.417       .  A
C1535      S1539   1.802       .  S
C1536      C1537   1.406       .  A
C1537      C1538   1.402       .  A
C1537      H1544   1.084       .  S
C1538      S1540   1.805       .  S
S1539      H1542   1.404       .  S
S1540      H1541   1.407       .  S
C1545      C1546   1.411       .  A
C1545      C1550   1.419       .  A
C1546      C1547   1.402       .  A
C1546      H1555   1.083       .  S
C1547      C1548   1.412       .  A
C1547      S1551   1.803       .  S
C1548      C1549   1.405       .  A
C1549      C1550   1.401       .  A
C1549      H1556   1.084       .  S
C1550      S1552   1.802       .  S
S1551      H1554   1.407       .  S
S1552      H1553   1.408       .  S
C1557      C1558   1.406       .  A
C1557      C1562   1.420       .  A
C1558      C1559   1.399       .  A
C1558      H1567   1.084       .  S
C1559      C1560   1.419       .  A
C1559      S1563   1.803       .  S
C1560      C1561   1.407       .  A
C1561      C1562   1.403       .  A
C1561      H1568   1.084       .  S
C1562      S1564   1.801       .  S
S1563      H1566   1.407       .  S
S1564      H1565   1.405       .  S
C1569      C1570   1.404       .  A
C1569      C1574   1.415       .  A
C1570      C1571   1.399       .  A
C1570      H1579   1.084       .  S
C1571      C1572   1.420       .  A
C1571      S1575   1.801       .  S
C1572      C1573   1.407       .  A
C1573      C1574   1.404       .  A
C1573      H1580   1.084       .  S
C1574      S1576   1.803       .  S
S1575      H1578   1.408       .  S
S1576      H1577   1.408       .  S
C1581      C1582   1.405       .  A
C1581      C1586   1.418       .  A
C1582      C1583   1.400       .  A
C1582      H1591   1.084       .  S
C1583      C1584   1.417       .  A
C1583      S1587   1.798       .  S
C1584      C1585   1.407       .  A
C1585      C1586   1.398       .  A
C1585      H1592   1.084       .  S
C1586      S1588   1.804       .  S
S1587      H1590   1.407       .  S
S1588      H1589   1.408       .  S
C1593      C1594   1.405       .  A
C1593      C1598   1.414       .  A
C1594      C1595   1.399       .  A
C1594      H1603   1.084       .  S
C1595      C1596   1.418       .  A
C1595      S1599   1.801       .  S
C1596      C1597   1.408       .  A
C1597      C1598   1.402       .  A
C1597      H1604   1.084       .  S
C1598      S1600   1.803       .  S
S1599      H1602   1.408       .  S
S1600      H1601   1.407       .  S
C1605      C1606   1.409       .  A
C1605      C1610   1.416       .  A
C1606      C1607   1.402       .  A
C1606      H1615   1.084       .  S
C1607      C1608   1.413       .  A
C1607      S1611   1.802       .  S
C1608      C1609   1.408       .  A
C1609      C1610   1.399       .  A
C1609      H1616   1.084       .  S
C1610      S1612   1.803       .  S
S1611      H1614   1.407       .  S
S1612      H1613   1.407       .  S
C1617      C1618   1.406       .  A
C1617      C1622   1.418       .  A
C1618      C1619   1.404       .  A
C1618      H1627   1.084       .  S
C1619      C1620   1.420       .  A
C1619      S1623   1.800       .  S
C1620      C1621   1.407       .  A
C1621      C1622   1.401       .  A
C1621      H1628   1.084       .  S
C1622      S1624   1.804       .  S
S1623      H1626   1.408       .  S
S1624      H1625   1.408       .  S
C1629      C1630   1.407       .  A
C1629      C1634   1.411       .  A
C1630      C1631   1.400       .  A
C1630      H1639   1.084       .  S
C1631      C1632   1.411       .  A
C1631      S1635   1.806       .  S
C1632      C1633   1.403       .  A
C1633      C1634   1.400       .  A
C1634      S1636   1.802       .  S
S1635      H1638   1.405       .  S
S1636      H1637   1.407       .  S
C1641      C1642   1.408       .  A
C1641      C1646   1.424       .  A
C1642      C1643   1.399       .  A
C1642      H1651   1.084       .  S
C1643      C1644   1.415       .  A
C1643      S1647   1.804       .  S
C1644      C1645   1.404       .  A
C1645      C1646   1.408       .  A
C1645      H1652   1.084       .  S
C1646      S1648   1.801       .  S
S1647      H1650   1.406       .  S
S1648      H1649   1.408       .  S
C1653      C1654   1.409       .  A
C1653      C1658   1.407       .  A
C1654      C1655   1.396       .  A
C1654      H1663   1.084       .  S
C1655      C1656   1.407       .  A
C1655      S1659   1.803       .  S
C1656      C1657   1.408       .  A
C1657      C1658   1.395       .  A
C1657      H1664   1.084       .  S
C1658      S1660   1.803       .  S
S1659      H1662   1.407       .  S
S1660      H1661   1.405       .  S
C1665      C1666   1.405       .  A
C1665      C1670   1.417       .  A
C1666      C1667   1.400       .  A
C1666      H1675   1.084       .  S
C1667      C1668   1.415       .  A
C1667      S1671   1.804   1_565  S
C1668      C1669   1.405       .  A
C1669      C1670   1.403       .  A
C1669      H1676   1.084       .  S
C1670      S1672   1.801       .  S
S1671      H1674   1.407       .  S
S1672      H1673   1.407       .  S
C1677      C1678   1.410       .  A
C1677      C1682   1.411       .  A
C1678      C1679   1.397       .  A
C1678      H1687   1.084       .  S
C1679      C1680   1.410       .  A
C1679      S1683   1.803       .  S
C1680      C1681   1.410       .  A
C1681      C1682   1.398       .  A
C1681      H1688   1.084       .  S
C1682      S1684   1.803       .  S
S1683      H1686   1.408       .  S
S1684      H1685   1.406       .  S
C1689      C1694   1.423       .  A
C1690      C1691   1.400       .  A
C1690      H1699   1.084       .  S
C1691      C1692   1.418       .  A
C1691      S1695   1.799       .  S
C1693      C1694   1.404       .  A
C1693      H1700   1.084       .  S
C1694      S1696   1.801       .  S
S1695      H1698   1.407       .  S
S1696      H1697   1.408       .  S
C1701      C1702   1.409       .  A
C1701      C1706   1.423       .  A
C1702      C1703   1.399       .  A
C1702      H1711   1.084       .  S
C1703      C1704   1.414       .  A
C1703      S1707   1.804       .  S
C1704      C1705   1.404       .  A
C1705      C1706   1.407       .  A
C1705      H1712   1.084       .  S
C1706      S1708   1.801       .  S
S1707      H1710   1.406       .  S
S1708      H1709   1.408       .  S
C1713      C1714   1.403       .  A
C1713      C1718   1.412       .  A
C1714      C1715   1.400       .  A
C1714      H1723   1.084       .  S
C1715      C1716   1.414       .  A
C1715      S1719   1.802       .  S
C1716      C1717   1.408       .  A
C1717      C1718   1.402       .  A
C1717      H1724   1.084       .  S
S1719      H1722   1.407       .  S
S1720      H1721   1.406   1_545  S
C1725      C1726   1.406       .  A
C1725      C1730   1.416       .  A
C1726      C1727   1.402       .  A
C1726      H1735   1.084       .  S
C1727      C1728   1.416       .  A
C1727      S1731   1.805       .  S
C1728      C1729   1.405       .  A
C1729      C1730   1.402       .  A
C1729      H1736   1.084       .  S
C1730      S1732   1.803       .  S
S1731      H1734   1.407       .  S
S1732      H1733   1.404       .  S
C1737      C1738   1.410       .  A
C1737      C1742   1.418       .  A
C1738      C1739   1.405   1_655  A
C1738      H1747   1.082       .  S
C1739      C1740   1.418       .  A
C1739      S1743   1.811       .  S
C1740      C1741   1.408       .  A
C1741      C1742   1.402   1_455  A
C1741      H1748   1.083       .  S
C1742      S1744   1.801       .  S
S1743      H1746   1.406       .  S
S1744      H1745   1.408       .  S
C1749      C1750   1.403       .  A
C1749      C1754   1.413       .  A
C1750      C1751   1.399       .  A
C1750      H1759   1.083       .  S
C1751      C1752   1.413       .  A
C1751      S1755   1.809       .  S
C1752      C1753   1.403       .  A
C1753      C1754   1.399       .  A
C1753      H1760   1.083       .  S
C1754      S1756   1.809       .  S
S1755      H1758   1.407       .  S
S1756      H1757   1.407       .  S
C1761      C1762   1.404       .  A
C1761      C1766   1.412       .  A
C1762      C1763   1.409       .  A
C1762      H1771   1.084       .  S
C1763      C1764   1.423       .  A
C1763      S1767   1.800       .  S
C1764      C1765   1.408       .  A
C1765      C1766   1.402       .  A
C1765      H1772   1.084       .  S
C1766      S1768   1.801       .  S
S1767      H1770   1.407       .  S
S1768      H1769   1.405       .  S
C1773      C1774   1.404       .  A
C1773      C1778   1.413       .  A
C1774      C1775   1.401       .  A
C1774      H1783   1.083       .  S
C1775      C1776   1.417       .  A
C1775      S1779   1.804       .  S
C1776      C1777   1.412       .  A
C1777      C1778   1.407       .  A
C1777      H1784   1.083       .  S
C1778      S1780   1.805       .  S
S1779      H1782   1.408       .  S
C1785      C1786   1.407       .  A
C1785      C1790   1.416       .  A
C1786      C1787   1.406       .  A
C1786      H1795   1.083       .  S
C1787      C1788   1.418       .  A
C1787      S1791   1.802       .  S
C1788      C1789   1.404       .  A
C1789      C1790   1.398       .  A
C1789      H1796   1.084       .  S
C1790      S1792   1.803       .  S
S1791      H1794   1.406       .  S
S1792      H1793   1.407       .  S
C1797      C1798   1.407       .  A
C1797      C1802   1.419       .  A
C1798      C1799   1.402   1_655  A
C1798      H1807   1.083       .  S
C1799      C1800   1.419       .  A
C1799      S1803   1.801       .  S
C1800      C1801   1.409       .  A
C1801      C1802   1.400   1_455  A
C1801      H1808   1.084       .  S
C1802      S1804   1.804       .  S
S1803      H1806   1.408       .  S
S1804      H1805   1.404       .  S
C1809      C1810   1.407       .  A
C1810      C1811   1.406       .  A
C1810      H1819   1.084       .  S
C1811      S1815   1.802       .  S
C1812      C1813   1.411       .  A
C1813      C1814   1.403       .  A
C1813      H1820   1.083       .  S
C1814      S1816   1.803       .  S
S1815      H1818   1.408       .  S
S1816      H1817   1.407       .  S
C1821      C1822   1.399       .  A
C1821      C1826   1.420       .  A
C1822      C1823   1.402       .  A
C1822      H1831   1.082       .  S
C1823      C1824   1.425       .  A
C1823      S1827   1.812       .  S
C1824      C1825   1.398       .  A
C1825      C1826   1.391       .  A
C1825      H1832   1.084       .  S
C1826      S1828   1.805       .  S
S1827      H1830   1.406       .  S
S1828      H1829   1.407       .  S
C1833      C1834   1.401       .  A
C1833      C1838   1.411       .  A
C1834      C1835   1.409       .  A
C1834      H1843   1.083       .  S
C1835      C1836   1.423       .  A
C1835      S1839   1.810       .  S
C1836      C1837   1.406       .  A
C1837      C1838   1.398       .  A
C1837      H1844   1.084       .  S
C1838      S1840   1.803       .  S
S1839      H1842   1.407       .  S
C1845      C1846   1.411       .  A
C1845      C1850   1.421       .  A
C1846      C1847   1.399       .  A
C1846      H1855   1.084       .  S
C1847      C1848   1.413       .  A
C1847      S1851   1.805       .  S
C1848      C1849   1.406       .  A
C1849      C1850   1.407       .  A
C1849      H1856   1.084       .  S
C1850      S1852   1.800       .  S
S1851      H1854   1.407       .  S
S1852      H1853   1.408       .  S
