geometry optimzed in LAMMPS
_audit_creation_date              2020-12-01 
_audit_creation_method            'lammps2cif' 
_symmetry_space_group_name_H-M    'P1' 
_symmetry_Int_Tables_number       1 
_symmetry_cell_setting            triclinic 
loop_ 
_symmetry_equiv_pos_as_xyz 
  x,y,z 
_cell_length_a                    51.16182287 
_cell_length_b                    50.68854469468333 
_cell_length_c                    49.222677754631896 
_cell_angle_alpha                 89.9578427269867 
_cell_angle_beta                  89.86800579495768 
_cell_angle_gamma                 89.98876392863588 
loop_ 
_atom_site_label 
_atom_site_type_symbol 
_atom_site_fract_x 
_atom_site_fract_y 
_atom_site_fract_z 
_atom_site_charge 
Zn1        Zn  0.97146201  0.03064790  0.98754355     1.49700
Zn2        Zn  0.01602160  0.01665255  0.02902122     1.49400
Zn3        Zn  0.97064504  0.97701544  0.00954576     1.49100
Zn4        Zn  0.01902153  0.99323283  0.97311336     1.49500
O5          O  0.99470118  0.00434250  0.00007711    -1.83900
O6          O  0.98361201  0.06399650  0.00032804    -0.74500
O7          O  0.00329085  0.99893451  0.06117205    -0.74400
O8          O  0.93346579  0.98307092  0.99913279    -0.73900
O9          O  0.01298047  0.05568241  0.03248952    -0.74600
O10         O  0.93431861  0.02652051  0.99829164    -0.74200
O11         O  0.97084013  0.97187614  0.04899481    -0.74700
O12         O  0.01848440  0.95416496  0.97056867    -0.74100
O13         O  0.05448046  0.00867417  0.02475025    -0.74900
O14         O  0.98318151  0.94409347  0.99479313    -0.74300
O15         O  0.05610714  0.00295374  0.98020861    -0.74800
O16         O  0.00831235  0.00828434  0.93877056    -0.74700
O17         O  0.97225259  0.03151240  0.94798911    -0.74400
C18         C  0.99981231  0.07161567  0.01804327     0.77300
C19         C  0.98583689  0.98191178  0.06657711     0.77800
C20         C  0.92164903  0.00506144  0.99918796     0.76800
C21         C  0.00298069  0.93737820  0.98090654     0.77200
C22         C  0.06744215  0.00596866  0.00287881     0.78300
C23         C  0.98887292  0.02210702  0.93157196     0.77400
C24         C  0.00538928  0.97189694  0.24583999     0.30200
C25         C  0.00514383  0.02779836  0.23943724     0.30200
C26         C  0.02817252  0.98755876  0.25967756    -0.06000
C27         C  0.00663588  0.98308933  0.21733756    -0.06800
C28         C  0.98064742  0.98705474  0.25628668    -0.06600
C29         C  0.02828595  0.01568846  0.25570744    -0.06000
C30         C  0.00713173  0.01062476  0.21363432    -0.06800
C31         C  0.98114039  0.01522169  0.25398060    -0.06600
C32         C  0.05444891  0.02263735  0.25370334    -0.32000
N33         N  0.06985993  0.00134630  0.25773433     0.14500
C34         C  0.05420719  0.98025995  0.26230330    -0.32000
H35         H  0.06134348  0.96026788  0.26397890     0.16400
C36         C  0.00744728  0.01457035  0.18600597    -0.31000
N37         N  0.00600776  0.99062083  0.17386084     0.13200
C38         C  0.00500128  0.97155112  0.19265259    -0.31000
C39         C  0.95544420  0.02372339  0.25438324    -0.31300
N40         N  0.93930293  0.00263904  0.25511397     0.13700
H41         H  0.94887587  0.04373542  0.25104362     0.16300
C42         C  0.95418940  0.98048269  0.25531370    -0.31300
H43         H  0.94622821  0.96109081  0.25155952     0.16300
H44         H  0.00156562  0.95087972  0.18843773     0.16300
H45         H  0.06174934  0.04122917  0.24600614     0.16400
H46         H  0.00731195  0.03324386  0.17538046     0.16300
C47         C  0.99849175  0.02761182  0.74995863     0.30200
C48         C  0.99746622  0.97151722  0.75465921     0.30200
C49         C  0.02305680  0.01232632  0.73989913    -0.06000
C50         C  0.99454639  0.01564166  0.77791083    -0.06800
C51         C  0.97574193  0.01298251  0.73510232    -0.06600
C52         C  0.02262923  0.98432503  0.74281374    -0.06000
C53         C  0.99482843  0.98795581  0.78098382    -0.06800
C54         C  0.97558906  0.98450456  0.73690189    -0.06600
C55         C  0.04844600  0.97694220  0.74649831    -0.32000
N56         N  0.06436950  0.99800386  0.74352978     0.14500
C57         C  0.04919721  0.01962757  0.73978343    -0.32000
H58         H  0.05657115  0.03961462  0.73960385     0.16400
C59         C  0.99147335  0.98342855  0.80835244    -0.31000
N60         N  0.98739159  0.00707682  0.82053642     0.13200
C61         C  0.98878869  0.02656517  0.80219062    -0.31000
C62         C  0.94945957  0.97710773  0.73642570    -0.31300
N63         N  0.93393142  0.99867921  0.73631446     0.13700
H64         H  0.94222405  0.95738882  0.73992503     0.16300
C65         C  0.94949448  0.02021513  0.73543781    -0.31300
H66         H  0.94218892  0.03983794  0.73938493     0.16300
H67         H  0.98633335  0.04733792  0.80663063     0.16300
H68         H  0.05510605  0.95810698  0.75417638     0.16400
H69         H  0.99238270  0.96467522  0.81879830     0.16300
C70         C  0.24758446  0.99718284  0.02810507     0.30200
C71         C  0.24639375  0.99970456  0.97160244     0.30200
C72         C  0.25626164  0.97216275  0.01282049    -0.06000
C73         C  0.22051862  0.00166838  0.01498896    -0.06800
C74         C  0.26400237  0.01908265  0.01489272    -0.06600
C75         C  0.25585661  0.97345706  0.98412892    -0.06000
C76         C  0.21981032  0.00273149  0.98642638    -0.06800
C77         C  0.26318442  0.02063774  0.98611120    -0.06600
C78         C  0.25225490  0.94791657  0.97501262    -0.32000
N79         N  0.25070565  0.93139533  0.99657384     0.14500
C80         C  0.25227051  0.94602448  0.01948774    -0.32000
H81         H  0.24895033  0.93838777  0.03975174     0.16400
C82         C  0.19383277  0.00103697  0.97920257    -0.31000
N83         N  0.17901606  0.00001397  0.00206775     0.13200
C84         C  0.19504823  0.00004859  0.02392999    -0.31000
C85         C  0.26487147  0.04723086  0.97988475    -0.31300
N86         N  0.26735415  0.06133775  0.00304456     0.13700
H87         H  0.26073836  0.05588051  0.96024000     0.16300
C88         C  0.26671956  0.04455350  0.02426279    -0.31300
H89         H  0.26417384  0.05078555  0.04513722     0.16300
H90         H  0.18854013  0.99842638  0.04476241     0.16300
H91         H  0.24972862  0.94206501  0.95405536     0.16400
H92         H  0.18601218  0.99932346  0.95889977     0.16300
C93         C  0.00542649  0.24855641  0.02271886     0.30200
C94         C  0.00460268  0.24401373  0.96582218     0.30200
C95         C  0.02916681  0.26108162  0.00740921    -0.06000
C96         C  0.00664422  0.22102572  0.01060642    -0.06800
C97         C  0.98199502  0.26099781  0.00780133    -0.06600
C98         C  0.02868987  0.25874614  0.97815884    -0.06000
C99         C  0.00614008  0.21841880  0.98231892    -0.06800
C100        C  0.98145223  0.25851970  0.97934277    -0.06600
C101        C  0.05463699  0.25580191  0.97029552    -0.32000
N102        N  0.07044720  0.25675884  0.99215575     0.14500
C103        C  0.05540062  0.25944479  0.01455159    -0.32000
H104        H  0.06299475  0.25705425  0.03483236     0.16400
C105        C  0.01033357  0.19219474  0.97681881    -0.31000
N106        N  0.01308182  0.17954525  0.00086634     0.13200
C107        C  0.01163186  0.19688450  0.02141870    -0.31000
C108        C  0.95581984  0.26236212  0.97164218    -0.31300
N109        N  0.94100277  0.26717913  0.99402553     0.13700
H110        H  0.94792841  0.25876247  0.95161795     0.16300
C111        C  0.95691793  0.26703266  0.01599860    -0.31300
H112        H  0.95005694  0.26755790  0.03679253     0.16300
H113        H  0.01308161  0.19186788  0.04274477     0.16300
H114        H  0.06139943  0.24946200  0.95052008     0.16400
H115        H  0.01074516  0.18281588  0.95708303     0.16300
C116        C  0.74398300  0.99885340  0.97413445     0.30200
C117        C  0.74421293  0.99701208  0.03078472     0.30200
C118        C  0.73227188  0.97405098  0.98749305    -0.06000
C119        C  0.77055690  0.00148438  0.98816858    -0.06800
C120        C  0.72901166  0.02154909  0.98876168    -0.06600
C121        C  0.73250642  0.97310108  0.01597319    -0.06000
C122        C  0.77066986  0.00060059  0.01656302    -0.06800
C123        C  0.72909880  0.02054533  0.01796500    -0.06600
C124        C  0.72933647  0.94702579  0.02320120    -0.32000
N125        N  0.72704598  0.93228050  0.00035972     0.14500
C126        C  0.72860801  0.94855367  0.97855326    -0.32000
H127        H  0.73027754  0.94184411  0.95776316     0.16400
C128        C  0.79561724  0.00625619  0.02475825    -0.31000
N129        N  0.81054501  0.00983800  0.00234504     0.13200
C130        C  0.79545140  0.00761707  0.97994562    -0.31000
C131        C  0.73090028  0.04655104  0.02647622    -0.31300
N132        N  0.73128199  0.06295507  0.00492061     0.13700
H133        H  0.73639964  0.05280373  0.04668317     0.16300
C134        C  0.73079937  0.04812227  0.98220250    -0.31300
H135        H  0.73580299  0.05590277  0.96240005     0.16300
H136        H  0.80235809  0.00961720  0.95924967     0.16300
H137        H  0.73153956  0.93893832  0.04341304     0.16400
H138        H  0.80268306  0.00725341  0.04543761     0.16300
C139        C  0.00328990  0.76074035  0.96598899     0.30200
C140        C  0.00509574  0.76297572  0.02313241     0.30200
C141        C  0.02406593  0.74279335  0.97983478    -0.06000
C142        C  0.01068348  0.78713785  0.97890485    -0.06800
C143        C  0.97830714  0.75344320  0.98151160    -0.06600
C144        C  0.02512007  0.74393153  0.00913064    -0.06000
C145        C  0.01147557  0.78851057  0.00744213    -0.06800
C146        C  0.97912386  0.75454357  0.00994311    -0.06600
C147        C  0.05144890  0.74115392  0.01556717    -0.32000
N148        N  0.06576095  0.73775472  0.99274971     0.14500
C149        C  0.04968298  0.73942639  0.97121844    -0.32000
H150        H  0.05682935  0.74247900  0.95076144     0.16400
C151        C  0.01727233  0.81421359  0.01388242    -0.31000
N152        N  0.01956816  0.82796217  0.99038294     0.13200
C153        C  0.01641568  0.81160022  0.96905989    -0.31000
C154        C  0.95387888  0.75083381  0.01899161    -0.31300
N155        N  0.93801469  0.74755174  0.99714614     0.13700
H156        H  0.94723147  0.75197115  0.03984508     0.16300
C157        C  0.95275281  0.74904314  0.97425392    -0.31300
H158        H  0.94509395  0.74888954  0.95378075     0.16300
H159        H  0.01613194  0.81775494  0.94800820     0.16300
H160        H  0.06012174  0.74557633  0.03506169     0.16400
H161        H  0.01783879  0.82280980  0.03398044     0.16300
Zn162      Zn  0.02514458  0.25266834  0.24844596     1.49700
Zn163      Zn  0.02295818  0.20385549  0.19750325     1.49400
Zn164      Zn  0.98507192  0.20388057  0.24737769     1.49100
Zn165      Zn  0.98557916  0.25645344  0.20138055     1.49500
O166        O  0.00487239  0.22908369  0.22350353    -1.83900
O167        O  0.06180285  0.24426927  0.23691748    -0.74500
O168        O  0.01678002  0.16130138  0.20579006    -0.74400
O169        O  0.98983390  0.21172417  0.28835262    -0.73900
O170        O  0.06116552  0.21229677  0.20505133    -0.74600
O171        O  0.01930063  0.24361872  0.28944025    -0.74200
O172        O  0.99181075  0.16261836  0.24244886    -0.74700
O173        O  0.94809594  0.24690182  0.20907568    -0.74100
O174        O  0.01597716  0.21548670  0.15589467    -0.74900
O175        O  0.94806249  0.21274005  0.23828631    -0.74300
O176        O  0.99313549  0.25275634  0.15967240    -0.74800
O177        O  0.99043407  0.29728734  0.21221617    -0.74700
O178        O  0.01893904  0.29427339  0.24536310    -0.74400
C179        C  0.07330141  0.22875754  0.22022198     0.77300
C180        C  0.00457902  0.14890141  0.22501493     0.77800
C181        C  0.00415792  0.22754020  0.30195853     0.76800
C182        C  0.93618079  0.22989021  0.22378350     0.77200
C183        C  0.00487862  0.23568325  0.14481067     0.78300
C184        C  0.00437910  0.30880408  0.23035025     0.77400
N185        N  0.02008347  0.24484361  0.52511233    -0.36400
N186        N  0.02247017  0.23885765  0.46384354    -0.57000
N187        N  0.96722143  0.23219159  0.46244128    -0.36400
N188        N  0.96475539  0.23793144  0.52402756    -0.57000
C189        C  0.04622297  0.24518122  0.52100790     0.27200
C190        C  0.01577217  0.24409154  0.55249157     0.27200
C191        C  0.97195479  0.23446387  0.43520679     0.27200
C192        C  0.94132149  0.23605868  0.46648007     0.27200
C193        C  0.04824779  0.23929628  0.46965111     0.35800
C194        C  0.02041573  0.23352791  0.43688861     0.35800
C195        C  0.96719316  0.23861199  0.55155532     0.35800
C196        C  0.93908814  0.23504188  0.51826126     0.35800
C197        C  0.05871158  0.24565966  0.54602317    -0.21700
C198        C  0.03967367  0.24465091  0.56569937    -0.21700
C199        C  0.94863550  0.23900674  0.42184070    -0.21700
C200        C  0.92941254  0.24006501  0.44141388    -0.21700
C201        C  0.06257090  0.23428276  0.44617170    -0.22700
C202        C  0.04499302  0.23047232  0.42557742    -0.22700
C203        C  0.94274439  0.23596089  0.56336574    -0.22700
C204        C  0.92504328  0.23368987  0.54242207    -0.22700
C205        C  0.05958710  0.24365138  0.49562058    -0.18100
C206        C  0.99114739  0.24177549  0.56613633    -0.18100
C207        C  0.92763921  0.23560590  0.49181693    -0.18100
C208        C  0.99673370  0.23289272  0.42198336    -0.18100
H209        H  0.07953367  0.24571848  0.54984479     0.14800
H210        H  0.04325982  0.24376282  0.58732546     0.14800
H211        H  0.94578471  0.24175494  0.40024208     0.14800
H212        H  0.90889912  0.24361084  0.43751672     0.14800
H213        H  0.08360334  0.23317008  0.44406481     0.13100
H214        H  0.04980870  0.22617036  0.40462363     0.13100
H215        H  0.93803000  0.23600481  0.58480507     0.13100
H216        H  0.90409309  0.23172658  0.54476623     0.13100
H217        H  0.00647898  0.24571794  0.50967023     0.26400
H218        H  0.98024568  0.22630817  0.47739784     0.26400
Zn219      Zn  0.01724793  0.25541524  0.74112682     1.49700
Zn220      Zn  0.97748102  0.20627018  0.74023530     1.49400
Zn221      Zn  0.01618575  0.20341083  0.78880136     1.49100
Zn222      Zn  0.97891559  0.25620853  0.78931049     1.49500
O223        O  0.99757818  0.23007146  0.76500942    -1.83900
O224        O  0.01130920  0.24871104  0.69962484    -0.74500
O225        O  0.98286255  0.16432497  0.74425142    -0.74400
O226        O  0.05384659  0.21354804  0.78180075    -0.73900
O227        O  0.98292162  0.21581389  0.69944680    -0.74600
O228        O  0.05415024  0.24774676  0.75240918    -0.74200
O229        O  0.01067529  0.16144988  0.77818979    -0.74700
O230        O  0.98654839  0.24893153  0.83053106    -0.74100
O231        O  0.94083691  0.21724708  0.74859002    -0.74900
O232        O  0.00987571  0.21178206  0.83104870    -0.74300
O233        O  0.94138972  0.24974710  0.77948590    -0.74800
O234        O  0.98434619  0.29762431  0.78205298    -0.74700
O235        O  0.01028346  0.29651089  0.74652320    -0.74400
C236        C  0.99657048  0.23280877  0.68645174     0.77300
C237        C  0.99686459  0.14969557  0.75982644     0.77800
C238        C  0.06576067  0.23138170  0.76810692     0.76800
C239        C  0.99884123  0.23102586  0.84379703     0.77200
C240        C  0.92927259  0.23487036  0.76271480     0.78300
C241        C  0.99687646  0.31013553  0.76347378     0.77400
N242        N  0.02855992  0.46934843  0.24373193    -0.36400
N243        N  0.97301126  0.46869116  0.24459195    -0.57000
N244        N  0.97297245  0.52982105  0.24642038    -0.36400
N245        N  0.02852032  0.53058974  0.24547353    -0.57000
C246        C  0.02510625  0.44245298  0.24425016     0.27200
C247        C  0.05396026  0.47465043  0.24956993     0.27200
C248        C  0.94698008  0.52445635  0.24672500     0.27200
C249        C  0.97637824  0.55651937  0.24269287     0.27200
C250        C  0.97635733  0.44189003  0.24370933     0.35800
C251        C  0.94728238  0.47363754  0.24924947     0.35800
C252        C  0.05442666  0.52550650  0.24788018     0.35800
C253        C  0.02530039  0.55732063  0.24383382     0.35800
C254        C  0.04905524  0.43075212  0.24934229    -0.21700
C255        C  0.06688562  0.45075535  0.25321692    -0.21700
C256        C  0.93357791  0.54811597  0.24337568    -0.21700
C257        C  0.95191016  0.56805496  0.24076031    -0.21700
C258        C  0.95246848  0.42977229  0.24777441    -0.22700
C259        C  0.93432615  0.44958635  0.25163228    -0.22700
C260        C  0.06785779  0.54936900  0.24737941    -0.22700
C261        C  0.04958917  0.56928684  0.24465218    -0.22700
C262        C  0.00088799  0.42810347  0.24159322    -0.18100
C263        C  0.06654200  0.50006332  0.25115567    -0.18100
C264        C  0.00074731  0.57100604  0.24170706    -0.18100
C265        C  0.93463694  0.49910572  0.25055298    -0.18100
H266        H  0.05343457  0.40995113  0.25082408     0.14800
H267        H  0.08730098  0.44781725  0.25804515     0.14800
H268        H  0.91260483  0.55082079  0.24274003     0.14800
H269        H  0.94760664  0.58878446  0.23799017     0.14800
H270        H  0.94861174  0.40880591  0.24884306     0.13100
H271        H  0.91375905  0.44645829  0.25563067     0.13100
H272        H  0.08877274  0.55222344  0.24880489     0.13100
H273        H  0.05377449  0.59018998  0.24366744     0.13100
H274        H  0.01516435  0.48359829  0.23802852     0.26400
H275        H  0.98692503  0.51561194  0.25035915     0.26400
Zn276      Zn  0.01742904  0.74624478  0.25155412     1.49700
Zn277      Zn  0.98348786  0.74375924  0.20094847     1.49400
Zn278      Zn  0.97769504  0.79481095  0.24899575     1.49100
Zn279      Zn  0.02043415  0.79693550  0.20318908     1.49500
O280        O  0.99976075  0.77080556  0.22586205    -1.83900
O281        O  0.01231879  0.70505070  0.24769170    -0.74500
O282        O  0.94559171  0.75244848  0.20618844    -0.74400
O283        O  0.98078539  0.78630035  0.29034383    -0.73900
O284        O  0.98871492  0.70202404  0.21068390    -0.74600
O285        O  0.01041302  0.75462223  0.29143536    -0.74200
O286        O  0.94148834  0.78597878  0.23598555    -0.74700
O287        O  0.01531488  0.83880048  0.21494401    -0.74100
O288        O  0.99276426  0.75088419  0.15981332    -0.74900
O289        O  0.98487248  0.83613586  0.24650192    -0.74300
O290        O  0.01425819  0.78915471  0.16002535    -0.74800
O291        O  0.05799217  0.78668338  0.21359465    -0.74700
O292        O  0.05412687  0.75456052  0.24458157    -0.74400
C293        C  0.00045411  0.69044329  0.23052007     0.77300
C294        C  0.93176988  0.76885022  0.21978692     0.77800
C295        C  0.99532809  0.77057403  0.30389980     0.76800
C296        C  0.00064544  0.85053784  0.23269343     0.77200
C297        C  0.00398558  0.76970579  0.14674944     0.78300
C298        C  0.06807287  0.77002446  0.23017988     0.77400
N299        N  0.03144554  0.76785821  0.52398001    -0.36400
N300        N  0.02958528  0.76422807  0.46338070    -0.57000
N301        N  0.97434778  0.77337601  0.46506830    -0.36400
N302        N  0.97631930  0.77418356  0.52556884    -0.57000
C303        C  0.05515082  0.75746661  0.51817945     0.27200
C304        C  0.02723691  0.76470212  0.55109227     0.27200
C305        C  0.97751706  0.76725845  0.43839486     0.27200
C306        C  0.94905184  0.76859035  0.47152749     0.27200
C307        C  0.05571162  0.76438406  0.46758355     0.35800
C308        C  0.02581930  0.76920667  0.43655361     0.35800
C309        C  0.98113078  0.77943734  0.55211096     0.35800
C310        C  0.95081604  0.77958528  0.52119689     0.35800
C311        C  0.06624734  0.74779858  0.54192811    -0.21700
C312        C  0.04864083  0.75231305  0.56261932    -0.21700
C313        C  0.95390240  0.75906146  0.42766513    -0.21700
C314        C  0.93603464  0.75959570  0.44857239    -0.21700
C315        C  0.06861166  0.76913240  0.44323020    -0.22700
C316        C  0.04968814  0.77231232  0.42363711    -0.22700
C317        C  0.95860336  0.78865929  0.56454688    -0.22700
C318        C  0.93937934  0.78859608  0.54503247    -0.22700
C319        C  0.06817949  0.75885144  0.49270681    -0.18100
C320        C  0.00479219  0.77323699  0.56573000    -0.18100
C321        C  0.93698630  0.77324876  0.49712623    -0.18100
C322        C  0.00113056  0.76903635  0.42340129    -0.18100
H323        H  0.08526339  0.73872205  0.54422346     0.14800
H324        H  0.05136706  0.74716433  0.58376566     0.14800
H325        H  0.95005253  0.75282633  0.40703175     0.14800
H326        H  0.91568427  0.75403561  0.44691330     0.14800
H327        H  0.08950854  0.77002257  0.43987705     0.13100
H328        H  0.05311193  0.77604459  0.40227208     0.13100
H329        H  0.95604476  0.79399759  0.58567014     0.13100
H330        H  0.91909127  0.79383940  0.54820132     0.13100
H331        H  0.02033465  0.77912918  0.51066688     0.26400
H332        H  0.98801174  0.78250008  0.47752216     0.26400
Zn333      Zn  0.02173338  0.79368597  0.74056621     1.49700
Zn334      Zn  0.01884976  0.74097959  0.78685050     1.49400
Zn335      Zn  0.98182300  0.79406100  0.78872021     1.49100
Zn336      Zn  0.98218530  0.74438241  0.73874791     1.49500
O337        O  0.00109908  0.76862598  0.76399072    -1.83900
O338        O  0.05851058  0.78247109  0.74901740    -0.74500
O339        O  0.01260842  0.74794377  0.82823872    -0.74400
O340        O  0.98733392  0.83642428  0.78040963    -0.73900
O341        O  0.05636622  0.74783172  0.77764232    -0.74600
O342        O  0.01595960  0.83533810  0.74698446    -0.74200
O343        O  0.98840470  0.78418505  0.83062516    -0.74700
O344        O  0.94566954  0.75357794  0.74716468    -0.74100
O345        O  0.01162279  0.69965445  0.77860954    -0.74900
O346        O  0.94424160  0.78497730  0.77949074    -0.74300
O347        O  0.98619321  0.70268795  0.74300288    -0.74800
O348        O  0.98908671  0.75309094  0.69852668    -0.74700
O349        O  0.01629480  0.78688144  0.69918415    -0.74400
C350        C  0.06925906  0.76418972  0.76304393     0.77300
C351        C  0.00056586  0.76516647  0.84264507     0.77800
C352        C  0.00147849  0.84912124  0.76297040     0.76800
C353        C  0.93314725  0.76915720  0.76280169     0.77200
C354        C  0.99841977  0.68801996  0.75993606     0.78300
C355        C  0.00285922  0.77005501  0.68577503     0.77400
N356        N  0.02342414  0.46915713  0.75305172    -0.36400
N357        N  0.96427130  0.46982093  0.75538639    -0.57000
N358        N  0.96500418  0.52843956  0.75185744    -0.36400
N359        N  0.02411523  0.52774761  0.75361075    -0.57000
C360        C  0.01841624  0.44311535  0.75838349     0.27200
C361        C  0.04979809  0.47361027  0.75530473     0.27200
C362        C  0.93863101  0.52410031  0.75466157     0.27200
C363        C  0.97019030  0.55464926  0.75628670     0.27200
C364        C  0.96866261  0.44311490  0.75450773     0.35800
C365        C  0.93800507  0.47411121  0.75160955     0.35800
C366        C  0.05010821  0.52312793  0.74854227     0.35800
C367        C  0.01963677  0.55421081  0.75023105     0.35800
C368        C  0.04210736  0.43093404  0.76405883    -0.21700
C369        C  0.06158562  0.44987905  0.76217414    -0.21700
C370        C  0.92701132  0.54808364  0.76092034    -0.21700
C371        C  0.94659477  0.56700995  0.76205069    -0.21700
C372        C  0.94492245  0.43054130  0.75044745    -0.22700
C373        C  0.92586828  0.44982877  0.74844480    -0.22700
C374        C  0.06192072  0.54683462  0.74167862    -0.22700
C375        C  0.04295088  0.56622308  0.74283589    -0.22700
C376        C  0.99347396  0.42946226  0.75749576    -0.18100
C377        C  0.06381213  0.49818869  0.75082887    -0.18100
C378        C  0.99522291  0.56821349  0.75432732    -0.18100
C379        C  0.92445337  0.49935590  0.75159589    -0.18100
H380        H  0.04515877  0.41036949  0.76905671     0.14800
H381        H  0.08220895  0.44646878  0.76551256     0.14800
H382        H  0.90643891  0.55163178  0.76453963     0.14800
H383        H  0.94364738  0.58769018  0.76654448     0.14800
H384        H  0.94162008  0.40951739  0.74878587     0.13100
H385        H  0.90531569  0.44619910  0.74496435     0.13100
H386        H  0.08220263  0.54995471  0.73629912     0.13100
H387        H  0.04601614  0.58692701  0.73850375     0.13100
H388        H  0.00954328  0.48291532  0.74619717     0.26400
H389        H  0.97873854  0.51440860  0.74521769     0.26400
Zn390      Zn  0.69782973  0.48231163  0.71599306     1.49700
Zn391      Zn  0.70124527  0.52295377  0.76285932     1.49400
Zn392      Zn  0.74924971  0.48066064  0.76331506     1.49100
Zn393      Zn  0.75243675  0.51760076  0.71498342     1.49500
O394        O  0.72487287  0.50091448  0.73914385    -1.83900
O395        O  0.65605304  0.48884188  0.72605522    -0.74500
O396        O  0.70973563  0.51713879  0.80393449    -0.74400
O397        O  0.73821901  0.44363271  0.75597618    -0.73900
O398        O  0.65905772  0.51810392  0.75884320    -0.74600
O399        O  0.70562173  0.44417537  0.72524808    -0.74200
O400        O  0.74257371  0.48852668  0.80350378    -0.74700
O401        O  0.79367565  0.51122109  0.72348878    -0.74100
O402        O  0.71393184  0.55977200  0.75321370    -0.74900
O403        O  0.79076675  0.48479593  0.75856147    -0.74300
O404        O  0.74681625  0.55574164  0.72299108    -0.74800
O405        O  0.74467080  0.50995541  0.67388690    -0.74700
O406        O  0.70692812  0.48813252  0.67385146    -0.74400
C407        C  0.64437423  0.50343991  0.74390819     0.77300
C408        C  0.72675537  0.50328345  0.81658430     0.77800
C409        C  0.72132139  0.43197529  0.74113729     0.76800
C410        C  0.80530189  0.49795665  0.74218752     0.77200
C411        C  0.73219121  0.56962572  0.73845236     0.78300
C412        C  0.72615621  0.49862120  0.66070451     0.77400
N413        N  0.73465857  0.46629740  0.03661246    -0.36400
N414        N  0.74297351  0.52161092  0.04035673    -0.57000
N415        N  0.73756626  0.52640610  0.97921585    -0.36400
N416        N  0.73229639  0.47094777  0.97513713    -0.57000
C417        C  0.73986540  0.46787272  0.06371785     0.27200
C418        C  0.73723329  0.44079066  0.02910615     0.27200
C419        C  0.74524172  0.55107558  0.98581682     0.27200
C420        C  0.73828235  0.52423056  0.95160561     0.27200
C421        C  0.74137824  0.51671787  0.06746559     0.35800
C422        C  0.74405028  0.54808362  0.03740336     0.35800
C423        C  0.72931926  0.44469161  0.97824883     0.35800
C424        C  0.72860276  0.47629236  0.94838821     0.35800
C425        C  0.74460472  0.44279930  0.07370559    -0.21700
C426        C  0.74322311  0.42580040  0.05193717    -0.21700
C427        C  0.75036551  0.56501725  0.96205721    -0.21700
C428        C  0.74594025  0.54816599  0.94059763    -0.21700
C429        C  0.74202792  0.54018554  0.08176897    -0.22700
C430        C  0.74372659  0.55997403  0.06284407    -0.22700
C431        C  0.72380197  0.43326050  0.95324229    -0.22700
C432        C  0.72332467  0.45321922  0.93442542    -0.22700
C433        C  0.74074752  0.49132497  0.07962636    -0.18100
C434        C  0.73390771  0.43025719  0.00250137    -0.18100
C435        C  0.73184736  0.50140017  0.93606585    -0.18100
C436        C  0.74622317  0.56207994  0.01243844    -0.18100
H437        H  0.74916817  0.43732278  0.09440899     0.14800
H438        H  0.74631239  0.40469549  0.05289184     0.14800
H439        H  0.75645908  0.58538830  0.96026302     0.14800
H440        H  0.74812156  0.55308792  0.91932126     0.14800
H441        H  0.74162039  0.54283919  0.10357759     0.13100
H442        H  0.74475939  0.58082786  0.06741374     0.13100
H443        H  0.72095354  0.41254597  0.94883353     0.13100
H444        H  0.72013981  0.45084317  0.91283982     0.13100
H445        H  0.72781769  0.48118144  0.02408585     0.26400
H446        H  0.72982996  0.51306749  0.99296915     0.26400
Zn447      Zn  0.77732978  0.27286469  0.01346709     1.49700
Zn448      Zn  0.73272791  0.22739470  0.02050825     1.49400
Zn449      Zn  0.73401862  0.26502919  0.97193968     1.49100
Zn450      Zn  0.78066627  0.22185615  0.97949263     1.49500
O451        O  0.75625170  0.24611546  0.99650976    -1.83900
O452        O  0.76753888  0.27302923  0.05144414    -0.74500
O453        O  0.69464769  0.23091401  0.00977290    -0.74400
O454        O  0.73220323  0.30357786  0.97956439    -0.73900
O455        O  0.73657871  0.24261764  0.05755200    -0.74600
O456        O  0.76918631  0.30944197  0.00184453    -0.74200
O457        O  0.69699179  0.25278349  0.97110744    -0.74700
O458        O  0.77763896  0.22707987  0.93978939    -0.74100
O459        O  0.74039163  0.18848956  0.01951226    -0.74900
O460        O  0.74884258  0.26016423  0.93621318    -0.74300
O461        O  0.77140787  0.18406973  0.98834083    -0.74800
O462        O  0.81877120  0.22968947  0.98834817    -0.74700
O463        O  0.81596202  0.26759864  0.01011112    -0.74400
C464        C  0.75127700  0.26097945  0.06637571     0.77300
C465        C  0.68362166  0.24083344  0.98897735     0.77800
C466        C  0.74870416  0.31859925  0.99087662     0.76800
C467        C  0.76496301  0.24395929  0.92600097     0.77200
C468        C  0.75504968  0.17391911  0.00484662     0.78300
C469        C  0.82973798  0.24940692  0.99957956     0.77400
Zn470      Zn  0.77388741  0.77311219  0.01877194     1.49700
Zn471      Zn  0.72952171  0.72735231  0.02435481     1.49400
Zn472      Zn  0.72927714  0.76677447  0.97648971     1.49100
Zn473      Zn  0.77523237  0.72207461  0.98359022     1.49500
O474        O  0.75215251  0.74743352  0.00076943    -1.83900
O475        O  0.76637904  0.77051621  0.05783771    -0.74500
O476        O  0.69194246  0.72860896  0.01431391    -0.74400
O477        O  0.73258267  0.80644619  0.97902418    -0.73900
O478        O  0.73288852  0.74238032  0.06036273    -0.74600
O479        O  0.76407896  0.81038542  0.00935107    -0.74200
O480        O  0.69132744  0.75866226  0.98185041    -0.74700
O481        O  0.76368319  0.71943050  0.94584676    -0.74100
O482        O  0.73822669  0.68901322  0.02609405    -0.74900
O483        O  0.73629304  0.75328830  0.94012051    -0.74300
O484        O  0.77191983  0.68533642  0.99815728    -0.74800
O485        O  0.81331394  0.73205258  0.98542951    -0.74700
O486        O  0.81254881  0.76702563  0.01216523    -0.74400
C487        C  0.74859692  0.75862560  0.07111103     0.77300
C488        C  0.67956995  0.74224525  0.99703268     0.77800
C489        C  0.74709482  0.82080016  0.99390578     0.76800
C490        C  0.74857910  0.73326261  0.93122029     0.77200
C491        C  0.75541696  0.67505714  0.01426122     0.78300
C492        C  0.82530033  0.75005068  0.99844796     0.77400
N493        N  0.52933359  0.74179289  0.96490643    -0.36400
N494        N  0.52967842  0.73463846  0.02601217    -0.57000
N495        N  0.47497655  0.74320967  0.02673007    -0.36400
N496        N  0.47457746  0.74738978  0.96538824    -0.57000
C497        C  0.55397090  0.73352733  0.96965925     0.27200
C498        C  0.52478088  0.73937272  0.93775172     0.27200
C499        C  0.47844340  0.73478104  0.05275649     0.27200
C500        C  0.44927419  0.74110931  0.02094235     0.27200
C501        C  0.55541327  0.73770745  0.02076853     0.35800
C502        C  0.52660182  0.73715810  0.05332335     0.35800
C503        C  0.47841900  0.75293407  0.93865271     0.35800
C504        C  0.44993754  0.75480525  0.97154982     0.35800
C505        C  0.56539847  0.72594930  0.94525100    -0.21700
C506        C  0.54695932  0.72950897  0.92519075    -0.21700
C507        C  0.45456420  0.72753408  0.06369250    -0.21700
C508        C  0.43618633  0.73146462  0.04368019    -0.21700
C509        C  0.56879691  0.74170301  0.04497228    -0.22700
C510        C  0.55056563  0.74119276  0.06555864    -0.22700
C511        C  0.45601457  0.76380312  0.92770395    -0.22700
C512        C  0.43798887  0.76501992  0.94848335    -0.22700
C513        C  0.56738352  0.73549540  0.99478928    -0.18100
C514        C  0.50161110  0.74713057  0.92392902    -0.18100
C515        C  0.43697053  0.74947286  0.99650817    -0.18100
C516        C  0.50241386  0.73491032  0.06723314    -0.18100
H517        H  0.58519342  0.71902744  0.94213653     0.14800
H518        H  0.54975137  0.72573628  0.90374087     0.14800
H519        H  0.45071979  0.72036000  0.08402593     0.14800
H520        H  0.41542125  0.72797391  0.04585296     0.14800
H521        H  0.58961145  0.74450636  0.04758872     0.13100
H522        H  0.55448590  0.74363844  0.08700676     0.13100
H523        H  0.45292002  0.76998559  0.90690902     0.13100
H524        H  0.41810818  0.77206732  0.94660772     0.13100
H525        H  0.51795136  0.75166649  0.97911828     0.26400
H526        H  0.48856632  0.75276442  0.01448062     0.26400
Zn527      Zn  0.22751054  0.72341096  0.01600308     1.49700
Zn528      Zn  0.27638166  0.72136079  0.98092197     1.49400
Zn529      Zn  0.23011503  0.76528031  0.97003483     1.49100
Zn530      Zn  0.27217494  0.76855580  0.01718968     1.49500
O531        O  0.25110292  0.74535276  0.99565753    -1.83900
O532        O  0.23574983  0.68516527  0.01406583    -0.74500
O533        O  0.26832825  0.71742639  0.94314477    -0.74400
O534        O  0.19051897  0.75883565  0.97496928    -0.73900
O535        O  0.27563471  0.68570412  0.99703312    -0.74600
O536        O  0.19000206  0.72795068  0.00674720    -0.74200
O537        O  0.23985957  0.74978970  0.93360667    -0.74700
O538        O  0.26090130  0.80522631  0.01220359    -0.74100
O539        O  0.31305953  0.73299200  0.98298694    -0.74900
O540        O  0.23734724  0.80535646  0.97447548    -0.74300
O541        O  0.31112671  0.76747405  0.01009894    -0.74800
O542        O  0.26708992  0.75863189  0.05493662    -0.74700
O543        O  0.23263146  0.73161827  0.05391051    -0.74400
C544        C  0.25689216  0.67343593  0.00806138     0.77300
C545        C  0.25420877  0.73021760  0.92670300     0.77800
C546        C  0.17800789  0.74262313  0.99003310     0.76800
C547        C  0.24894988  0.81770555  0.99371935     0.77200
C548        C  0.32429878  0.75135415  0.99587079     0.78300
C549        C  0.25021215  0.74419036  0.06653808     0.77400
N550        N  0.25809613  0.52125198  0.04216086    -0.36400
N551        N  0.26187678  0.52409946  0.98069351    -0.57000
N552        N  0.25796413  0.46894867  0.97817717    -0.36400
N553        N  0.25746508  0.46587825  0.03986332    -0.57000
C554        C  0.26458020  0.54673594  0.03807495     0.27200
C555        C  0.26156217  0.51592267  0.06904845     0.27200
C556        C  0.26401073  0.47391588  0.95171170     0.27200
C557        C  0.26289570  0.44323011  0.98282581     0.27200
C558        C  0.25960947  0.54987135  0.98694461     0.35800
C559        C  0.25930798  0.52222123  0.95330176     0.35800
C560        C  0.25251653  0.46815556  0.06688064     0.35800
C561        C  0.25247395  0.44063396  0.03302013     0.35800
C562        C  0.27186827  0.55792079  0.06269855    -0.21700
C563        C  0.27016428  0.53845898  0.08212825    -0.21700
C564        C  0.27243982  0.45095074  0.93934640    -0.21700
C565        C  0.27185139  0.43161614  0.95893863    -0.21700
C566        C  0.25625241  0.56448291  0.96325160    -0.22700
C567        C  0.25604624  0.54695927  0.94201460    -0.22700
C568        C  0.24455041  0.44411871  0.07731669    -0.22700
C569        C  0.24456622  0.42666558  0.05591100    -0.22700
C570        C  0.26191907  0.56087750  0.01335263    -0.18100
C571        C  0.25615854  0.49153948  0.08222502    -0.18100
C572        C  0.25734775  0.42930356  0.00716982    -0.18100
C573        C  0.26140814  0.49851410  0.93833077    -0.18100
H574        H  0.27759767  0.57813874  0.06643008     0.14800
H575        H  0.27445754  0.54076274  0.10351400     0.14800
H576        H  0.27840678  0.44835139  0.91841361     0.14800
H577        H  0.27706561  0.41115899  0.95574691     0.14800
H578        H  0.25444746  0.58567519  0.96134248     0.13100
H579        H  0.25403261  0.55189797  0.92072622     0.13100
H580        H  0.23940943  0.43959333  0.09814352     0.13100
H581        H  0.23966303  0.40592842  0.05715180     0.13100
H582        H  0.24883816  0.50954664  0.02781834     0.26400
H583        H  0.24809729  0.48123526  0.99160947     0.26400
Zn584      Zn  0.27792701  0.26816735  0.02106231     1.49700
Zn585      Zn  0.23610167  0.26556352  0.97592879     1.49400
Zn586      Zn  0.27878942  0.22039396  0.98405489     1.49100
Zn587      Zn  0.23059573  0.22580381  0.02493197     1.49500
O588        O  0.25525940  0.24449835  0.00164026    -1.83900
O589        O  0.27577456  0.30476063  0.00848170    -0.74500
O590        O  0.25064584  0.25834773  0.93948897    -0.74400
O591        O  0.31629511  0.22810766  0.99025649    -0.73900
O592        O  0.24034608  0.30412134  0.98300678    -0.74600
O593        O  0.31563362  0.25923630  0.02137325    -0.74200
O594        O  0.27558269  0.22265425  0.94476335    -0.74700
O595        O  0.23927219  0.18585694  0.02496728    -0.74100
O596        O  0.19741653  0.25868855  0.97713470    -0.74900
O597        O  0.27251627  0.18407689  0.99567798    -0.74300
O598        O  0.19296007  0.23175003  0.01220213    -0.74800
O599        O  0.23246173  0.24298934  0.06216566    -0.74700
O600        O  0.26503946  0.27156519  0.05751181    -0.74400
C601        C  0.25783732  0.31671803  0.99580036     0.77300
C602        C  0.26567648  0.24055648  0.93011248     0.77800
C603        C  0.32820612  0.24387732  0.00588232     0.76800
C604        C  0.25666977  0.17288930  0.01179921     0.77200
C605        C  0.18288414  0.24574472  0.99332897     0.78300
C606        C  0.24661282  0.26171486  0.07132470     0.77400
N607        N  0.53126039  0.24378611  0.96050455    -0.36400
N608        N  0.53457001  0.24483775  0.02227950    -0.57000
N609        N  0.47992683  0.25066014  0.02476532    -0.36400
N610        N  0.47646103  0.24543946  0.96338271    -0.57000
C611        C  0.55592599  0.23534498  0.96504244     0.27200
C612        C  0.52550746  0.23888423  0.93394931     0.27200
C613        C  0.48516030  0.24786426  0.05172124     0.27200
C614        C  0.45454181  0.24440922  0.02106893     0.27200
C615        C  0.55998427  0.24666928  0.01494841     0.35800
C616        C  0.53294373  0.25250573  0.04874699     0.35800
C617        C  0.47842783  0.24902059  0.93609313     0.35800
C618        C  0.45129685  0.25001038  0.97013186     0.35800
C619        C  0.56598653  0.22494838  0.94105091    -0.21700
C620        C  0.54689443  0.22736765  0.92145898    -0.21700
C621        C  0.46275048  0.24005300  0.06528935    -0.21700
C622        C  0.44348981  0.23772877  0.04599955    -0.21700
C623        C  0.57458274  0.25526770  0.03703129    -0.22700
C624        C  0.55748694  0.25894666  0.05834189    -0.22700
C625        C  0.45430276  0.25567101  0.92545056    -0.22700
C626        C  0.43710541  0.25617134  0.94694404    -0.22700
C627        C  0.57063271  0.23932554  0.98923997    -0.18100
C628        C  0.50156376  0.24502940  0.92069338    -0.18100
C629        C  0.44033354  0.24671792  0.99642462    -0.18100
C630        C  0.50955052  0.25278452  0.06440592    -0.18100
H631        H  0.58535005  0.21691989  0.93782191     0.14800
H632        H  0.54853607  0.22127670  0.90045333     0.14800
H633        H  0.46052306  0.23632061  0.08682366     0.14800
H634        H  0.42343980  0.23210459  0.05000839     0.14800
H635        H  0.59546517  0.25857726  0.03775655     0.13100
H636        H  0.56255477  0.26563561  0.07852591     0.13100
H637        H  0.44948890  0.25950056  0.90442066     0.13100
H638        H  0.41641028  0.26040041  0.94561013     0.13100
H639        H  0.52044290  0.25513760  0.97403477     0.26400
H640        H  0.49192390  0.25918358  0.01012556     0.26400
Zn641      Zn  0.52441177  0.76997049  0.74892904     1.49700
Zn642      Zn  0.52298655  0.72581168  0.69835013     1.49400
Zn643      Zn  0.48061271  0.73024106  0.74836975     1.49100
Zn644      Zn  0.48336679  0.77240767  0.69821048     1.49500
O645        O  0.50309070  0.74946990  0.72318870    -1.83900
O646        O  0.56139272  0.76538255  0.73681397    -0.74500
O647        O  0.51669757  0.68690792  0.71023506    -0.74400
O648        O  0.48495681  0.73725197  0.78967275    -0.73900
O649        O  0.56123837  0.73593713  0.70305677    -0.74600
O650        O  0.52044889  0.76170936  0.79058525    -0.74200
O651        O  0.48795846  0.69250500  0.74358270    -0.74700
O652        O  0.44530560  0.76545453  0.70393369    -0.74100
O653        O  0.51475048  0.73114576  0.65654536    -0.74900
O654        O  0.44361156  0.73611788  0.73777413    -0.74300
O655        O  0.49069928  0.76723855  0.65692394    -0.74800
O656        O  0.48918635  0.81029047  0.70878824    -0.74700
O657        O  0.51563935  0.80836346  0.74448631    -0.74400
C658        C  0.57323807  0.75220205  0.71849748     0.77300
C659        C  0.50191943  0.67743869  0.72890817     0.77800
C660        C  0.50260674  0.74903571  0.80332797     0.76800
C661        C  0.43258655  0.75060675  0.72007343     0.77200
C662        C  0.50252877  0.74927055  0.64348617     0.78300
C663        C  0.50190902  0.82156650  0.72771734     0.77400
Zn664      Zn  0.28863524  0.51760803  0.71504046     1.49700
Zn665      Zn  0.28855666  0.48160107  0.76568181     1.49400
Zn666      Zn  0.23832708  0.52155027  0.76457750     1.49100
Zn667      Zn  0.23595109  0.47992985  0.72023128     1.49500
O668        O  0.26316520  0.50039441  0.74127818    -1.83900
O669        O  0.33156496  0.51382076  0.72446312    -0.74500
O670        O  0.28098741  0.48984467  0.80588690    -0.74400
O671        O  0.24525786  0.55825263  0.75037040    -0.73900
O672        O  0.33022167  0.48708244  0.75959850    -0.74600
O673        O  0.27701628  0.55580304  0.71866770    -0.74200
O674        O  0.24699751  0.51710083  0.80586195    -0.74700
O675        O  0.19495517  0.48630150  0.72784412    -0.74100
O676        O  0.27743841  0.44389934  0.76125692    -0.74900
O677        O  0.19687524  0.51491298  0.76106173    -0.74300
O678        O  0.24273844  0.44325281  0.73315757    -0.74800
O679        O  0.24207042  0.48334984  0.67847100    -0.74700
O680        O  0.27835204  0.50710843  0.67407576    -0.74400
C681        C  0.34417788  0.50080933  0.74301896     0.77300
C682        C  0.26413560  0.50360126  0.81880519     0.77800
C683        C  0.25979049  0.56879305  0.73212324     0.76800
C684        C  0.18284810  0.50053275  0.74537081     0.77200
C685        C  0.25873469  0.43190377  0.74925786     0.78300
C686        C  0.25912258  0.49445517  0.66316444     0.77400
Zn687      Zn  0.51609572  0.23304299  0.69634555     1.49700
Zn688      Zn  0.47343760  0.23473873  0.74520013     1.49400
Zn689      Zn  0.51747875  0.27466615  0.74771669     1.49100
Zn690      Zn  0.47737493  0.28128197  0.69738409     1.49500
O691        O  0.49596432  0.25592911  0.72129508    -1.83900
O692        O  0.51036506  0.19441739  0.70643903    -0.74500
O693        O  0.47756145  0.24020583  0.78685312    -0.74400
O694        O  0.55431205  0.26848247  0.73774610    -0.73900
O695        O  0.48098215  0.19633764  0.73956725    -0.74600
O696        O  0.55439437  0.24032682  0.70306197    -0.74200
O697        O  0.51309471  0.26453512  0.78813166    -0.74700
O698        O  0.48325590  0.31947575  0.71097442    -0.74100
O699        O  0.43680127  0.24185097  0.73393777    -0.74900
O700        O  0.51000231  0.31317064  0.74579155    -0.74300
O701        O  0.43902243  0.27358027  0.70234350    -0.74800
O702        O  0.48532406  0.27642764  0.65550644    -0.74700
O703        O  0.50787110  0.23899930  0.65515162    -0.74400
C704        C  0.49611947  0.18304215  0.72423914     0.77300
C705        C  0.49554684  0.25136195  0.80060843     0.77800
C706        C  0.56646806  0.25450624  0.72035853     0.76800
C707        C  0.49628578  0.32848114  0.73110627     0.77200
C708        C  0.42603309  0.25758020  0.71714083     0.78300
C709        C  0.49634672  0.25762867  0.64229858     0.77400
Zn710      Zn  0.48416429  0.29008382  0.23625008     1.49700
Zn711      Zn  0.48343549  0.24027029  0.28562463     1.49400
Zn712      Zn  0.52428241  0.24118992  0.24062825     1.49100
Zn713      Zn  0.52048720  0.29286058  0.28761096     1.49500
O714        O  0.50308286  0.26648493  0.26267797    -1.83900
O715        O  0.44671881  0.28023442  0.24378467    -0.74500
O716        O  0.49008715  0.19909755  0.27895784    -0.74400
O717        O  0.52095867  0.24779783  0.19962973    -0.73900
O718        O  0.44643884  0.24830946  0.27558568    -0.74600
O719        O  0.49280395  0.28059181  0.19549836    -0.74200
O720        O  0.51900978  0.19992269  0.24589736    -0.74700
O721        O  0.55908552  0.28499948  0.28070156    -0.74100
O722        O  0.48841487  0.24695497  0.32691669    -0.74900
O723        O  0.56017740  0.25056118  0.25171427    -0.74300
O724        O  0.51196960  0.28382139  0.32927422    -0.74800
O725        O  0.51353952  0.33445489  0.27802059    -0.74700
O726        O  0.48869164  0.33200338  0.24157292    -0.74400
C727        C  0.43470766  0.26381807  0.25913184     0.77300
C728        C  0.50477742  0.18650795  0.26226380     0.77800
C729        C  0.50779456  0.26329146  0.18451060     0.76800
C730        C  0.57138986  0.26775182  0.26655851     0.77200
C731        C  0.49977654  0.26471622  0.34107261     0.78300
C732        C  0.50079925  0.34638246  0.25899219     0.77400
Zn733      Zn  0.72350280  0.47666892  0.30388791     1.49700
Zn734      Zn  0.76933316  0.47437653  0.25394817     1.49400
Zn735      Zn  0.72727600  0.51655864  0.25311627     1.49100
Zn736      Zn  0.77201182  0.51506019  0.30326044     1.49500
O737        O  0.74775335  0.49561458  0.27891382    -1.83900
O738        O  0.73508182  0.43850324  0.30072795    -0.83900
O739        O  0.76030765  0.47589386  0.21258941    -0.74400
O740        O  0.68871806  0.51131204  0.25855780    -0.73900
O741        O  0.76534345  0.43799818  0.26783639    -0.74600
O742        O  0.68441780  0.48095713  0.29085294    -0.74200
O743        O  0.73229687  0.50882913  0.21242380    -0.74700
O744        O  0.76687676  0.55279412  0.29312946    -0.74100
O745        O  0.80779666  0.48371625  0.25682080    -0.74900
O746        O  0.73791582  0.55346620  0.25898139    -0.74300
O747        O  0.81112434  0.50797414  0.29398803    -0.74800
O748        O  0.76419736  0.51064680  0.34515671    -0.74700
O749        O  0.72796544  0.48691849  0.34543544    -0.74400
C750        C  0.75188111  0.42635073  0.28608753     0.77300
C751        C  0.74541198  0.49158372  0.19947089     0.77800
C752        C  0.67435564  0.49591427  0.27256468     0.76800
C753        C  0.75388615  0.56488207  0.27489015     0.77200
C754        C  0.82184275  0.49635426  0.27375507     0.78300
C755        C  0.74565213  0.49960742  0.35855736     0.77400
Zn756      Zn  0.52315824  0.75007361  0.24123094     1.49700
Zn757      Zn  0.52179296  0.69888577  0.28834568     1.49400
Zn758      Zn  0.48402516  0.75128468  0.28858074     1.49100
Zn759      Zn  0.48205328  0.70172096  0.23980592     1.49500
O760        O  0.50281776  0.72520813  0.26460157    -1.83900
O761        O  0.55998732  0.73988209  0.24912230    -0.74500
O762        O  0.51526458  0.70767266  0.33034053    -0.74400
O763        O  0.48990713  0.79257093  0.28109786    -0.73900
O764        O  0.55995581  0.70720465  0.28004494    -0.74600
O765        O  0.51885014  0.79106227  0.24818811    -0.74200
O766        O  0.49161737  0.74440745  0.32938545    -0.74700
O767        O  0.44477049  0.71099622  0.25025740    -0.74100
O768        O  0.51513490  0.65723055  0.27842844    -0.74900
O769        O  0.44631459  0.74300974  0.28156742    -0.74300
O770        O  0.48862688  0.65993981  0.24311412    -0.74800
O771        O  0.48752826  0.71158723  0.19904391    -0.74700
O772        O  0.51593280  0.74461049  0.20042807    -0.74400
C773        C  0.57189357  0.72334957  0.26427731     0.77300
C774        C  0.50365942  0.72662620  0.34298854     0.77800
C775        C  0.50470963  0.80489444  0.26424755     0.76800
C776        C  0.43345800  0.72719857  0.26640354     0.77200
C777        C  0.50205805  0.64558889  0.25947766     0.78300
C778        C  0.50139258  0.72898580  0.18683321     0.77400
Zn779      Zn  0.23186745  0.51261992  0.25449090     1.49700
Zn780      Zn  0.27273613  0.46965853  0.25885977     1.49400
Zn781      Zn  0.27524809  0.51396977  0.30599290     1.49100
Zn782      Zn  0.22589767  0.47640457  0.30712693     1.49500
O783        O  0.25163414  0.49313442  0.28201048    -1.83900
O784        O  0.24095532  0.50627771  0.21447381    -0.74500
O785        O  0.31138850  0.47726925  0.26330710    -0.74400
O786        O  0.26774320  0.55209541  0.29601746    -0.73900
O787        O  0.26688616  0.47182621  0.21682041    -0.74600
O788        O  0.23900634  0.54964556  0.26190741    -0.74200
O789        O  0.31469822  0.50711625  0.29624799    -0.74700
O790        O  0.23046155  0.48615028  0.34822608    -0.74100
O791        O  0.26452329  0.43375487  0.27260425    -0.74900
O792        O  0.26713925  0.50912705  0.34808779    -0.74300
O793        O  0.23311021  0.43760210  0.30417935    -0.74800
O794        O  0.18759223  0.48351252  0.29521551    -0.74700
O795        O  0.19308043  0.50699268  0.25754435    -0.74400
C796        C  0.25455376  0.48874117  0.20250067     0.77300
C797        C  0.32522028  0.49259875  0.27789618     0.77800
C798        C  0.25319749  0.56287278  0.27807812     0.76800
C799        C  0.24824610  0.49847914  0.36139789     0.77200
C800        C  0.24910184  0.42377734  0.29024139     0.78300
C801        C  0.17817874  0.49562882  0.27462195     0.77400
N802        N  0.47136103  0.97367218  0.74443778    -0.36400
N803        N  0.52805935  0.97344010  0.74865319    -0.57000
N804        N  0.52803376  0.03091618  0.74843498    -0.36400
N805        N  0.47128816  0.03111581  0.74805320    -0.57000
C806        C  0.47593433  0.94753124  0.74700779     0.27200
C807        C  0.44610294  0.97788324  0.75143685     0.27200
C808        C  0.55333898  0.02663432  0.75518318     0.27200
C809        C  0.52361242  0.05720434  0.74972327     0.27200
C810        C  0.52446258  0.94770975  0.74255683     0.35800
C811        C  0.55416361  0.97749102  0.74932481     0.35800
C812        C  0.44531396  0.02680539  0.74586247     0.35800
C813        C  0.47522753  0.05690448  0.74240080     0.35800
C814        C  0.45318317  0.93481980  0.75494960    -0.21700
C815        C  0.43443738  0.95399737  0.75805499    -0.21700
C816        C  0.56523949  0.05069061  0.76050089    -0.21700
C817        C  0.54655467  0.06995182  0.75687733    -0.21700
C818        C  0.54841143  0.93523942  0.73959984    -0.22700
C819        C  0.56720633  0.95399567  0.74426320    -0.22700
C820        C  0.43255513  0.05004483  0.73933294    -0.22700
C821        C  0.45152224  0.06904841  0.73678842    -0.22700
C822        C  0.50001095  0.93473049  0.74217088    -0.18100
C823        C  0.43281187  0.00237796  0.75058395    -0.18100
C824        C  0.49963451  0.07006178  0.74387733    -0.18100
C825        C  0.56650237  0.00193228  0.75487504    -0.18100
H826        H  0.45047166  0.91393937  0.75860653     0.14800
H827        H  0.41440669  0.95064279  0.76427290     0.14800
H828        H  0.58544757  0.05411908  0.76590420     0.14800
H829        H  0.54953084  0.09095943  0.75928976     0.14800
H830        H  0.55199483  0.91461487  0.73528930     0.13100
H831        H  0.58809061  0.95065427  0.74382345     0.13100
H832        H  0.41178217  0.05293549  0.73645709     0.13100
H833        H  0.44813944  0.08956456  0.73181863     0.13100
H834        H  0.48402758  0.98721468  0.73570237     0.26400
H835        H  0.51516000  0.01715189  0.74071197     0.26400
Zn836      Zn  0.22440278  0.01872714  0.79194412     1.49700
Zn837      Zn  0.27231206  0.98137239  0.79602694     1.49400
Zn838      Zn  0.22716229  0.97184465  0.74689202     1.49100
Zn839      Zn  0.26801348  0.01475084  0.74095327     1.49500
O840        O  0.24774441  0.99663539  0.76915926    -1.83900
O841        O  0.23044091  0.01563873  0.83456856    -0.74500
O842        O  0.26742082  0.94266264  0.79307708    -0.74400
O843        O  0.18868644  0.97867764  0.75263803    -0.73900
O844        O  0.26562683  0.99066413  0.83672129    -0.74600
O845        O  0.18622580  0.01079136  0.78303648    -0.74200
O846        O  0.23655971  0.93630654  0.76144772    -0.74700
O847        O  0.26061552  0.00541116  0.70112714    -0.74100
O848        O  0.31034376  0.98907337  0.78607569    -0.74900
O849        O  0.23240399  0.97284764  0.70437485    -0.74300
O850        O  0.30661571  0.00950685  0.74627916    -0.74800
O851        O  0.25967928  0.05226518  0.74508784    -0.74700
O852        O  0.23041374  0.05592547  0.77890085    -0.74400
C853        C  0.24780487  0.00384479  0.84891633     0.77300
C854        C  0.25270597  0.92768176  0.77910692     0.77800
C855        C  0.17514470  0.99481802  0.76669595     0.76800
C856        C  0.24641742  0.98810915  0.68964719     0.77200
C857        C  0.32058346  0.99940767  0.76494461     0.78300
C858        C  0.24459594  0.06584548  0.76011975     0.77400
N859        N  0.24729594  0.02415072  0.46984592    -0.36400
N860        N  0.24224287  0.01934828  0.53082775    -0.57000
N861        N  0.25349698  0.96464462  0.52658945    -0.36400
N862        N  0.25454272  0.96912197  0.46531955    -0.57000
C863        C  0.23934076  0.04852206  0.47692704     0.27200
C864        C  0.24405695  0.02175286  0.44253247     0.27200
C865        C  0.24673452  0.96557081  0.55337854     0.27200
C866        C  0.25362782  0.93906777  0.51894572     0.27200
C867        C  0.24360857  0.04580984  0.52795719     0.35800
C868        C  0.24457050  0.01422386  0.55780572     0.35800
C869        C  0.25800977  0.97520064  0.43869829     0.35800
C870        C  0.26304830  0.94416959  0.46866943     0.35800
C871        C  0.23123708  0.06200965  0.45383210    -0.21700
C872        C  0.23405224  0.04505540  0.43218877    -0.21700
C873        C  0.24319800  0.94014750  0.56294989    -0.21700
C874        C  0.24728215  0.92347590  0.54127556    -0.21700
C875        C  0.24603701  0.05757205  0.55328968    -0.22700
C876        C  0.24640073  0.03761554  0.57215785    -0.22700
C877        C  0.26847064  0.95387192  0.42495515    -0.22700
C878        C  0.27177865  0.93425672  0.44392186    -0.22700
C879        C  0.24157308  0.05985376  0.50312361    -0.18100
C880        C  0.25106144  0.99955253  0.42658583    -0.18100
C881        C  0.26061549  0.92912317  0.49286563    -0.18100
C882        C  0.24481002  0.98868441  0.56964159    -0.18100
H883        H  0.22428439  0.08214335  0.45263284     0.14800
H884        H  0.22962722  0.04953945  0.41119412     0.14800
H885        H  0.23817630  0.93417031  0.58341249     0.14800
H886        H  0.24600251  0.90217719  0.54204116     0.14800
H887        H  0.24726108  0.07843417  0.55777919     0.13100
H888        H  0.24811941  0.04011088  0.59390836     0.13100
H889        H  0.27321175  0.95258352  0.40355481     0.13100
H890        H  0.27938397  0.91472176  0.43985834     0.13100
H891        H  0.25740009  0.01159086  0.48271554     0.26400
H892        H  0.26036906  0.98001175  0.51464171     0.26400
Zn893      Zn  0.23002612  0.01974767  0.20559597     1.49700
Zn894      Zn  0.27790472  0.97973882  0.20428779     1.49400
Zn895      Zn  0.27587113  0.02135407  0.25313500     1.49100
Zn896      Zn  0.23420038  0.97860692  0.25448855     1.49500
O897        O  0.25436386  0.99977955  0.22888325    -1.83900
O898        O  0.23429748  0.01083622  0.16448124    -0.74500
O899        O  0.31674822  0.98777742  0.21268716    -0.74400
O900        O  0.27207193  0.05783397  0.24064736    -0.73900
O901        O  0.26979631  0.98596392  0.16283261    -0.74600
O902        O  0.24089961  0.05785991  0.20916449    -0.74200
O903        O  0.31388604  0.01227438  0.24996318    -0.74700
O904        O  0.24065429  0.98595636  0.29477880    -0.74100
O905        O  0.27305422  0.94112078  0.21423746    -0.74900
O906        O  0.26742305  0.01984250  0.29378642    -0.74300
O907        O  0.24395632  0.94161305  0.24814589    -0.74800
O908        O  0.19562321  0.98367629  0.24979846    -0.74700
O909        O  0.19139304  0.01490237  0.21854102    -0.74400
C910        C  0.25147799  0.99843992  0.15048960     0.77300
C911        C  0.32751121  0.99975596  0.23260748     0.77800
C912        C  0.25799513  0.06985483  0.22336747     0.76800
C913        C  0.25376996  0.00346574  0.30730692     0.77200
C914        C  0.25969117  0.92939038  0.23261308     0.78300
C915        C  0.18130561  0.99944718  0.23635050     0.77400
N916        N  0.47708071  0.96550484  0.25955368    -0.36400
N917        N  0.53194964  0.96491292  0.25730314    -0.57000
N918        N  0.53251215  0.02654552  0.25835726    -0.36400
N919        N  0.47773744  0.02701097  0.25591830    -0.57000
C920        C  0.48074694  0.93875897  0.25712124     0.27200
C921        C  0.45208007  0.97114611  0.25246579     0.27200
C922        C  0.55761294  0.02066261  0.25203926     0.27200
C923        C  0.52903491  0.05317972  0.25493236     0.27200
C924        C  0.52893877  0.93853288  0.26223026     0.35800
C925        C  0.55779844  0.97042861  0.25901591     0.35800
C926        C  0.45177251  0.02180132  0.25620948     0.35800
C927        C  0.48074262  0.05367546  0.25883463     0.35800
C928        C  0.45741962  0.92737447  0.24917292    -0.21700
C929        C  0.43950253  0.94756359  0.24625613    -0.21700
C930        C  0.57041902  0.04399082  0.24516962    -0.21700
C931        C  0.55261328  0.06433223  0.24735272    -0.21700
C932        C  0.55313059  0.92733486  0.26715655    -0.22700
C933        C  0.57128602  0.94730897  0.26494033    -0.22700
C934        C  0.43823679  0.04548002  0.25901150    -0.22700
C935        C  0.45645730  0.06544978  0.26077013    -0.22700
C936        C  0.50469234  0.92438163  0.26120780    -0.18100
C937        C  0.43956701  0.99657714  0.25233331    -0.18100
C938        C  0.50507237  0.06761507  0.25791119    -0.18100
C939        C  0.57006716  0.99532792  0.25370940    -0.18100
H940        H  0.45374647  0.90668227  0.24536761     0.14800
H941        H  0.41935703  0.94505350  0.24012380     0.14800
H942        H  0.59070934  0.04628270  0.23937411     0.14800
H943        H  0.55653793  0.08492366  0.24322671     0.14800
H944        H  0.55737643  0.90690784  0.27175523     0.13100
H945        H  0.59217685  0.94501948  0.26745259     0.13100
H946        H  0.41726104  0.04820311  0.25952697     0.13100
H947        H  0.45225293  0.08629191  0.26268419     0.13100
H948        H  0.48989866  0.97925496  0.26763792     0.26400
H949        H  0.51954133  0.01308352  0.26675355     0.26400
Zn950      Zn  0.77550933  0.98206210  0.25979668     1.49700
Zn951      Zn  0.73197134  0.97611464  0.20919290     1.49400
Zn952      Zn  0.73251747  0.02279183  0.25347011     1.49100
Zn953      Zn  0.77818701  0.01606170  0.20454046     1.49500
O954        O  0.75455650  0.99926276  0.23151490    -1.83900
O955        O  0.76824156  0.94404524  0.25569800    -0.74500
O956        O  0.69355529  0.98128364  0.21847671    -0.74400
O957        O  0.73715823  0.02188464  0.29552098    -0.73900
O958        O  0.74037933  0.93914941  0.22116421    -0.74600
O959        O  0.76644084  0.99047774  0.29986406    -0.74200
O960        O  0.69473513  0.01418227  0.24805346    -0.74700
O961        O  0.77010103  0.05441625  0.20726057    -0.74100
O962        O  0.73545712  0.98128620  0.16713185    -0.74900
O963        O  0.73913853  0.05872474  0.23921133    -0.74300
O964        O  0.77064249  0.00656878  0.16365541    -0.74800
O965        O  0.81718815  0.01163192  0.21548793    -0.74700
O966        O  0.81401632  0.99014140  0.25479306    -0.74400
C967        C  0.75410665  0.92965551  0.24051810     0.77300
C968        C  0.68195298  0.99726678  0.23439917     0.77800
C969        C  0.75090075  0.00701232  0.31080654     0.76800
C970        C  0.75445052  0.06840250  0.22134203     0.77200
C971        C  0.75196480  0.99379056  0.15240802     0.78300
C972        C  0.82775598  0.00189727  0.23684730     0.77400
N973        N  0.72630623  0.02906937  0.47302072    -0.36400
N974        N  0.72798230  0.02419894  0.53472715    -0.57000
N975        N  0.73291254  0.96948117  0.53030257    -0.36400
N976        N  0.73457354  0.97443025  0.46869092    -0.57000
C977        C  0.72972409  0.05421308  0.48130073     0.27200
C978        C  0.73348901  0.02779717  0.44633151     0.27200
C979        C  0.73934556  0.97230696  0.55700907     0.27200
C980        C  0.74153581  0.94563728  0.52217689     0.27200
C981        C  0.72002683  0.04932674  0.53143153     0.35800
C982        C  0.72511139  0.01837503  0.56149648     0.35800
C983        C  0.73124732  0.97950206  0.44181810     0.35800
C984        C  0.73216628  0.94812196  0.47188786     0.35800
C985        C  0.73855319  0.06923556  0.45945981    -0.21700
C986        C  0.74089838  0.05259610  0.43749483    -0.21700
C987        C  0.75210035  0.94984358  0.56587622    -0.21700
C988        C  0.75318386  0.93288429  0.54406199    -0.21700
C989        C  0.71187868  0.05951676  0.55626113    -0.22700
C990        C  0.71519098  0.03992502  0.57529759    -0.22700
C991        C  0.72701110  0.95626920  0.42781592    -0.22700
C992        C  0.72745098  0.93639399  0.44684114    -0.22700
C993        C  0.72387061  0.06445421  0.50754076    -0.18100
C994        C  0.73340112  0.00481120  0.42978858    -0.18100
C995        C  0.73711443  0.93415409  0.49630907    -0.18100
C996        C  0.73315478  0.99436195  0.57362941    -0.18100
H997        H  0.74297548  0.09011372  0.45931771     0.14800
H998        H  0.74752893  0.05810958  0.41738366     0.14800
H999        H  0.75953776  0.94591101  0.58604100     0.14800
H1000       H  0.76154159  0.91328403  0.54441845     0.14800
H1001       H  0.70518366  0.07937162  0.56040167     0.13100
H1002       H  0.71119155  0.04150557  0.59683567     0.13100
H1003       H  0.72405402  0.95389475  0.40618916     0.13100
H1004       H  0.72528720  0.91556925  0.44255941     0.13100
H1005       H  0.71733053  0.01448640  0.48461481     0.26400
H1006       H  0.72067250  0.98141172  0.51876146     0.26400
Zn1007     Zn  0.72784990  0.01972585  0.79643279     1.49700
Zn1008     Zn  0.77691596  0.98378251  0.79812702     1.49400
Zn1009     Zn  0.73089708  0.97617816  0.74962963     1.49100
Zn1010     Zn  0.77033431  0.01982948  0.74460392     1.49500
O1011       O  0.75162394  0.99983399  0.77239089    -1.83900
O1012       O  0.73331904  0.01367644  0.83772739    -0.74500
O1013       O  0.76975884  0.94517307  0.79594514    -0.74400
O1014       O  0.69245002  0.98362783  0.75419193    -0.73900
O1015       O  0.77090311  0.99245567  0.83969643    -0.74600
O1016       O  0.68968174  0.01279423  0.78762576    -0.74200
O1017       O  0.73866389  0.94094383  0.76438017    -0.74700
O1018       O  0.76018557  0.01322274  0.70468102    -0.74100
O1019       O  0.81491200  0.98984858  0.78468164    -0.74900
O1020       O  0.73675425  0.97710669  0.70774028    -0.74300
O1021       O  0.80921418  0.01282099  0.74650137    -0.74800
O1022       O  0.76154627  0.05693327  0.75216791    -0.74700
O1023       O  0.73318545  0.05747880  0.78691601    -0.74400
C1024       C  0.75139561  0.00311922  0.85191214     0.77300
C1025       C  0.75387809  0.93118532  0.78224900     0.77800
C1026       C  0.67892667  0.99858652  0.76947998     0.76800
C1027       C  0.74773692  0.99468072  0.69304610     0.77200
C1028       C  0.82402419  0.00070373  0.76313619     0.78300
C1029       C  0.74616451  0.06904150  0.76825789     0.77400
Zn1030     Zn  0.73184108  0.72732618  0.48099943     1.49700
Zn1031     Zn  0.77426744  0.77446700  0.48665243     1.49400
Zn1032     Zn  0.72823215  0.77059909  0.52534807     1.49100
Zn1033     Zn  0.77817140  0.72983368  0.52133731     1.49500
O1034       O  0.75151406  0.75011423  0.50381769    -1.83900
O1035       O  0.74889746  0.73022176  0.44450654    -0.74500
O1036       O  0.76062016  0.81021888  0.48385036    -0.74400
O1037       O  0.69046288  0.75880068  0.52077923    -0.73900
O1038       O  0.77951228  0.76097593  0.45102100    -0.74600
O1039       O  0.69307665  0.73713906  0.48158906    -0.74200
O1040       O  0.72878016  0.80887392  0.51430881    -0.74700
O1041       O  0.77956739  0.74540989  0.55773208    -0.74100
O1042       O  0.80991594  0.77767901  0.50193780    -0.74900
O1043       O  0.74341436  0.76986965  0.56241860    -0.74300
O1044       O  0.81504028  0.73485125  0.50583032    -0.74800
O1045       O  0.76848103  0.69128840  0.52261782    -0.74700
O1046       O  0.73509044  0.68965547  0.49406577    -0.74400
C1047       C  0.76838644  0.74388072  0.43637684     0.77300
C1048       C  0.74285140  0.82150815  0.49742619     0.77800
C1049       C  0.67945581  0.74800548  0.50028824     0.76800
C1050       C  0.76506358  0.76093256  0.57138890     0.77200
C1051       C  0.82482308  0.75778300  0.50272832     0.78300
C1052       C  0.75066716  0.67827181  0.51053577     0.77400
Zn1053     Zn  0.76625159  0.22416326  0.51118084     1.49700
Zn1054     Zn  0.76487288  0.27130471  0.47460170     1.49400
Zn1055     Zn  0.71707915  0.22880644  0.47810624     1.49100
Zn1056     Zn  0.72368462  0.27106483  0.52193231     1.49500
O1057       O  0.74241044  0.24949294  0.49642971    -1.83900
O1058       O  0.80141760  0.22272945  0.49409412    -0.74500
O1059       O  0.75733020  0.26091021  0.43678311    -0.74400
O1060       O  0.71676443  0.19097237  0.48936543    -0.73900
O1061       O  0.80362697  0.26413857  0.48060359    -0.74600
O1062       O  0.75238644  0.18768335  0.51404240    -0.74200
O1063       O  0.72611252  0.23007599  0.44021416    -0.74700
O1064       O  0.68436743  0.26434594  0.52170768    -0.74100
O1065       O  0.75852726  0.30997825  0.48145809    -0.74900
O1066       O  0.68102864  0.24159156  0.48326880    -0.74300
O1067       O  0.72968362  0.30968301  0.51518137    -0.74800
O1068       O  0.74023039  0.26389101  0.55717060    -0.74700
O1069       O  0.77286574  0.23608732  0.54733100    -0.74400
C1070       C  0.81478867  0.24234383  0.48623746     0.77300
C1071       C  0.74221083  0.24363940  0.42650595     0.77800
C1072       C  0.73214901  0.17729483  0.50376030     0.76800
C1073       C  0.67068411  0.25358473  0.50315072     0.77200
C1074       C  0.74461746  0.32212493  0.49891890     0.78300
C1075       C  0.76073497  0.25108637  0.56354623     0.77400
Zn1076     Zn  0.23240062  0.76541734  0.47951007     1.49700
Zn1077     Zn  0.27796861  0.76731107  0.51964616     1.49400
Zn1078     Zn  0.22842445  0.72714689  0.52774573     1.49100
Zn1079     Zn  0.27302175  0.71635431  0.48483422     1.49500
O1080       O  0.25319341  0.74364726  0.50305222    -1.83900
O1081       O  0.24335357  0.80282218  0.47724940    -0.74500
O1082       O  0.26859972  0.77039387  0.55769370    -0.74400
O1083       O  0.19050302  0.73244837  0.51645440    -0.73900
O1084       O  0.27529617  0.80439436  0.50698516    -0.74600
O1085       O  0.19445433  0.76584742  0.48779437    -0.74200
O1086       O  0.23276524  0.74584848  0.56284595    -0.74700
O1087       O  0.26519475  0.68073679  0.50061530    -0.74100
O1088       O  0.31528532  0.75741141  0.51351615    -0.74900
O1089       O  0.23443161  0.68765619  0.53148917    -0.74300
O1090       O  0.31223791  0.72346583  0.48511508    -0.74800
O1091       O  0.26107112  0.71513926  0.44664022    -0.74700
O1092       O  0.23472622  0.75008459  0.44401920    -0.74400
C1093       C  0.26022399  0.81583493  0.49034139     0.77300
C1094       C  0.24941226  0.76239999  0.57176499     0.77800
C1095       C  0.18035054  0.75019611  0.50151153     0.76800
C1096       C  0.24936661  0.67197626  0.51841175     0.77200
C1097       C  0.32577893  0.74051513  0.49787701     0.78300
C1098       C  0.24571016  0.73018040  0.43354243     0.77400
Zn1099     Zn  0.22325181  0.26888148  0.47431281     1.49700
Zn1100     Zn  0.26898235  0.26775760  0.51677996     1.49400
Zn1101     Zn  0.22176387  0.22497796  0.51668486     1.49100
Zn1102     Zn  0.26697507  0.22190229  0.47519370     1.49500
O1103       O  0.24553420  0.24609681  0.49567671    -1.83900
O1104       O  0.23270687  0.30685017  0.47816408    -0.74500
O1105       O  0.26079327  0.26197673  0.55539181    -0.74400
O1106       O  0.18419307  0.23097047  0.50933916    -0.73900
O1107       O  0.26347574  0.30619532  0.50959480    -0.74600
O1108       O  0.18476988  0.26583161  0.48258722    -0.74200
O1109       O  0.22718522  0.23393864  0.55405262    -0.74700
O1110       O  0.26150487  0.18399731  0.48605754    -0.74100
O1111       O  0.30693881  0.25993034  0.50984581    -0.74900
O1112       O  0.22741609  0.18679374  0.51347556    -0.74300
O1113       O  0.30560601  0.23007395  0.47721803    -0.74800
O1114       O  0.25457853  0.22398488  0.43772704    -0.74700
O1115       O  0.22609748  0.25704307  0.43672350    -0.74400
C1116       C  0.24847641  0.31889000  0.49369951     0.77300
C1117       C  0.24310753  0.24833415  0.56687606     0.77800
C1118       C  0.17222026  0.24864529  0.49608732     0.76800
C1119       C  0.24403723  0.17312721  0.50070187     0.77200
C1120       C  0.31860770  0.24516567  0.49286164     0.78300
C1121       C  0.23806406  0.23821761  0.42522425     0.77400
Zn1122     Zn  0.22312709  0.26087003  0.26628899     1.49700
Zn1123     Zn  0.27255835  0.27799472  0.23531572     1.49400
Zn1124     Zn  0.27442310  0.22550961  0.26813318     1.49100
Zn1125     Zn  0.23853044  0.22948411  0.21846670     1.49500
O1126       O  0.25306655  0.24848233  0.24737525    -1.83900
O1127       O  0.22778598  0.29777120  0.28016180    -0.74500
O1128       O  0.31067111  0.27123465  0.23940912    -0.74400
O1129       O  0.25877119  0.22267266  0.30450934    -0.73900
O1130       O  0.26450930  0.30804141  0.25879476    -0.74600
O1131       O  0.21854100  0.23831092  0.29803461    -0.74200
O1132       O  0.31118489  0.23876434  0.26989301    -0.74700
O1133       O  0.25700581  0.19643714  0.21126369    -0.74100
O1134       O  0.26220878  0.28801363  0.19756710    -0.74900
O1135       O  0.27479514  0.18955237  0.25175969    -0.74300
O1136       O  0.23926309  0.25223469  0.18720940    -0.74800
O1137       O  0.20075810  0.22098004  0.22331439    -0.74700
O1138       O  0.19058525  0.25796457  0.24457373    -0.74400
C1139       C  0.24622529  0.31384355  0.27520186     0.77300
C1140       C  0.32289132  0.25618447  0.25577074     0.77800
C1141       C  0.23559575  0.22709128  0.31271849     0.76800
C1142       C  0.26795479  0.18141459  0.22840802     0.77200
C1143       C  0.24815584  0.27482954  0.18121552     0.78300
C1144       C  0.18389305  0.23768626  0.23112716     0.77400
Zn1145     Zn  0.73006723  0.22346715  0.25966711     1.49700
Zn1146     Zn  0.78023165  0.26081893  0.27109473     1.49400
Zn1147     Zn  0.77203697  0.23414456  0.21570626     1.49100
Zn1148     Zn  0.73264892  0.27975609  0.23550294     1.49500
O1149       O  0.75381730  0.24966810  0.24556061    -1.83900
O1150       O  0.73581622  0.22054416  0.29887674    -0.74500
O1151       O  0.81659147  0.25088349  0.26026040    -0.74400
O1152       O  0.76559055  0.19560578  0.21176212    -0.73900
O1153       O  0.77189145  0.24421973  0.30559596    -0.74600
O1154       O  0.73578374  0.18811620  0.24361482    -0.74200
O1155       O  0.81056063  0.23719521  0.21806866    -0.74700
O1156       O  0.73510853  0.28624849  0.19582461    -0.74100
O1157       O  0.77902572  0.29966759  0.27900530    -0.74900
O1158       O  0.76072217  0.25261155  0.18341989    -0.74300
O1159       O  0.74373233  0.31132199  0.25568065    -0.74800
O1160       O  0.69503523  0.27548491  0.24477977    -0.74700
O1161       O  0.69256201  0.23343063  0.25598262    -0.74400
C1162       C  0.75338284  0.22986279  0.31426245     0.77300
C1163       C  0.82554113  0.24243226  0.23781502     0.77800
C1164       C  0.75067578  0.18006038  0.22471735     0.76800
C1165       C  0.74700097  0.27277353  0.17793058     0.77200
C1166       C  0.76209496  0.31668205  0.27202943     0.78300
C1167       C  0.68172666  0.25562158  0.25218427     0.77400
Zn1168     Zn  0.72729625  0.76727488  0.23822232     1.49700
Zn1169     Zn  0.77880064  0.77105253  0.27126897     1.49400
Zn1170     Zn  0.73721283  0.72702402  0.28307271     1.49100
Zn1171     Zn  0.77267636  0.72467966  0.23116445     1.49500
O1172       O  0.75391851  0.74735969  0.25569300    -1.83900
O1173       O  0.72969502  0.80526512  0.24717022    -0.74500
O1174       O  0.78720989  0.75985519  0.30833156    -0.74400
O1175       O  0.69817650  0.72854457  0.28236793    -0.73900
O1176       O  0.76557616  0.80753968  0.27199923    -0.74600
O1177       O  0.69167730  0.75374440  0.24626613    -0.74200
O1178       O  0.75184268  0.73609218  0.31830319    -0.74700
O1179       O  0.77030826  0.68679001  0.24151219    -0.74100
O1180       O  0.81215520  0.77190948  0.25098105    -0.74900
O1181       O  0.74615545  0.68975701  0.27876533    -0.74300
O1182       O  0.81017618  0.73402391  0.22885759    -0.74800
O1183       O  0.76051721  0.73122666  0.19403632    -0.74700
O1184       O  0.73310667  0.76511738  0.19925832    -0.74400
C1185       C  0.74637394  0.81859975  0.26031906     0.77300
C1186       C  0.77329138  0.74689756  0.32493098     0.77800
C1187       C  0.68296814  0.73889652  0.26502562     0.76800
C1188       C  0.75933111  0.67626861  0.26201592     0.77200
C1189       C  0.82265990  0.75438061  0.23619984     0.78300
C1190       C  0.74659887  0.74979045  0.18455396     0.77400
Zn1191     Zn  0.27341249  0.72159592  0.23258166     1.49700
Zn1192     Zn  0.27074819  0.76665956  0.27571017     1.49400
Zn1193     Zn  0.23274717  0.76911072  0.22769936     1.49100
Zn1194     Zn  0.22328832  0.72478119  0.26742592     1.49500
O1195       O  0.25049927  0.74559194  0.25120633    -1.83900
O1196       O  0.31056006  0.72822374  0.24068832    -0.74500
O1197       O  0.26927895  0.80559537  0.26691924    -0.74400
O1198       O  0.23739108  0.75635360  0.19140058    -0.73900
O1199       O  0.30848437  0.75575892  0.27542383    -0.74600
O1200       O  0.26708042  0.72424605  0.19348889    -0.74200
O1201       O  0.24654781  0.80504608  0.22866207    -0.74700
O1202       O  0.18740052  0.73404326  0.25574338    -0.74100
O1203       O  0.25794410  0.75869743  0.31232499    -0.74900
O1204       O  0.19464163  0.77136132  0.23396150    -0.74300
O1205       O  0.22541042  0.72978020  0.30636609    -0.74800
O1206       O  0.22886505  0.68647611  0.26336450    -0.74700
O1207       O  0.26768535  0.68436596  0.24360367    -0.74400
C1208       C  0.32157097  0.74083009  0.25976908     0.77300
C1209       C  0.25999246  0.81725293  0.24613417     0.77800
C1210       C  0.25142616  0.73885627  0.18034191     0.76800
C1211       C  0.17898922  0.75462503  0.24405167     0.77200
C1212       C  0.24086972  0.74270603  0.32133387     0.78300
C1213       C  0.24841150  0.67333740  0.25518449     0.77400
Zn1214     Zn  0.23228818  0.76266587  0.77813199     1.49700
Zn1215     Zn  0.22620042  0.73345168  0.72282812     1.49400
Zn1216     Zn  0.27016430  0.77816316  0.73248340     1.49100
Zn1217     Zn  0.27672775  0.72286480  0.75822482     1.49500
O1218       O  0.25126328  0.74902698  0.74773020    -1.83900
O1219       O  0.19413247  0.76160554  0.77273840    -0.74500
O1220       O  0.22787974  0.75398595  0.68861021    -0.74400
O1221       O  0.26845422  0.81045449  0.75441210    -0.73900
O1222       O  0.18938602  0.73683764  0.73592526    -0.74600
O1223       O  0.24043577  0.80003329  0.78702274    -0.74200
O1224       O  0.25505576  0.78722925  0.69758986    -0.74700
O1225       O  0.31310015  0.73209642  0.74738519    -0.74100
O1226       O  0.23345763  0.69476041  0.71576466    -0.74900
O1227       O  0.30761384  0.77021210  0.72609782    -0.74300
O1228       O  0.26924382  0.68912161  0.74055388    -0.74800
O1229       O  0.27480858  0.71597120  0.79779892    -0.74700
O1230       O  0.24072944  0.74100991  0.80932930    -0.74400
C1231       C  0.17984853  0.74999278  0.75550876     0.77300
C1232       C  0.23956790  0.77517878  0.68187804     0.77800
C1233       C  0.25495807  0.81662244  0.77502937     0.76800
C1234       C  0.32213933  0.75145759  0.73396295     0.77200
C1235       C  0.25185426  0.68026288  0.72472766     0.78300
C1236       C  0.25820877  0.72416456  0.81503741     0.77400
Zn1237     Zn  0.22072928  0.22803254  0.73146959     1.49700
Zn1238     Zn  0.27416920  0.22705798  0.76107956     1.49400
Zn1239     Zn  0.26202306  0.27454402  0.72564131     1.49100
Zn1240     Zn  0.22891151  0.26864645  0.77870249     1.49500
O1241       O  0.24614152  0.24963061  0.74953366    -1.83900
O1242       O  0.22830544  0.18946801  0.73378211    -0.74500
O1243       O  0.30794154  0.23283836  0.74215842    -0.74400
O1244       O  0.24613164  0.27221523  0.69033171    -0.73900
O1245       O  0.26523809  0.18995337  0.75679630    -0.74600
O1246       O  0.21915012  0.23795584  0.69325873    -0.74200
O1247       O  0.30001287  0.26951048  0.71939986    -0.74700
O1248       O  0.23362945  0.30800562  0.77586294    -0.74100
O1249       O  0.28020539  0.23190400  0.79972866    -0.74900
O1250       O  0.25831668  0.31018651  0.73881899    -0.74300
O1251       O  0.24690854  0.25784890  0.81210420    -0.74800
O1252       O  0.19027023  0.26026680  0.78170753    -0.74700
O1253       O  0.18585122  0.23263322  0.74708758    -0.74400
C1254       C  0.24698173  0.17744323  0.74535683     0.77300
C1255       C  0.31549192  0.25140650  0.72680235     0.77800
C1256       C  0.23041158  0.25599929  0.67974148     0.76800
C1257       C  0.24709576  0.32103455  0.75877288     0.77200
C1258       C  0.26699565  0.24405586  0.81751320     0.78300
C1259       C  0.17627159  0.24533420  0.76690119     0.77400
Zn1260     Zn  0.72911067  0.26740238  0.71610723     1.49700
Zn1261     Zn  0.76954812  0.27609867  0.76075044     1.49400
Zn1262     Zn  0.72358617  0.23436901  0.76675441     1.49100
Zn1263     Zn  0.77175924  0.22471445  0.72943551     1.49500
O1264       O  0.74831301  0.25035811  0.74335662    -1.83900
O1265       O  0.72643921  0.30558584  0.72326539    -0.74500
O1266       O  0.76809147  0.26780732  0.79922127    -0.74400
O1267       O  0.68722905  0.24319658  0.75611045    -0.73900
O1268       O  0.75596633  0.31263368  0.75535667    -0.74600
O1269       O  0.69270405  0.25462220  0.71295977    -0.74200
O1270       O  0.73165076  0.24421086  0.80419650    -0.74700
O1271       O  0.76006765  0.18851652  0.73767968    -0.74100
O1272       O  0.80739629  0.27279450  0.75122183    -0.74900
O1273       O  0.72686699  0.19553907  0.76594507    -0.74300
O1274       O  0.80709798  0.22952596  0.74417839    -0.74800
O1275       O  0.77608892  0.23002976  0.69035225    -0.74700
O1276       O  0.74771823  0.26244148  0.68252505    -0.74400
C1277       C  0.73830299  0.32094881  0.73935386     0.77300
C1278       C  0.75171922  0.25555450  0.81385292     0.77800
C1279       C  0.67796983  0.24916405  0.73295691     0.76800
C1280       C  0.74230786  0.18012168  0.75354260     0.77200
C1281       C  0.81923856  0.25085542  0.74888757     0.78300
C1282       C  0.76566375  0.24690101  0.67478529     0.77400
Zn1283     Zn  0.73786446  0.78103675  0.73004518     1.49700
Zn1284     Zn  0.76997967  0.76657708  0.78128034     1.49400
Zn1285     Zn  0.72399879  0.73013491  0.76295972     1.49100
Zn1286     Zn  0.77679346  0.73191073  0.73090735     1.49500
O1287       O  0.75187731  0.75249851  0.75092224    -1.83900
O1288       O  0.74048753  0.81462687  0.75086477    -0.74500
O1289       O  0.76084707  0.74567011  0.81262718    -0.74400
O1290       O  0.69038899  0.73910448  0.74523360    -0.73900
O1291       O  0.76137703  0.80367679  0.78875332    -0.74600
O1292       O  0.69986217  0.77461101  0.72049404    -0.74200
O1293       O  0.72145059  0.72950565  0.80306769    -0.74700
O1294       O  0.76943798  0.69312158  0.73219907    -0.74100
O1295       O  0.80806563  0.76603189  0.77702302    -0.74900
O1296       O  0.73142785  0.69322251  0.75395958    -0.74300
O1297       O  0.81338413  0.73849184  0.74264420    -0.74800
O1298       O  0.77655786  0.74451586  0.69353058    -0.74700
O1299       O  0.75854035  0.78434399  0.69592252    -0.74400
C1300       C  0.75007374  0.82054665  0.77389016     0.77300
C1301       C  0.74018221  0.73352679  0.81941750     0.77800
C1302       C  0.68385323  0.75694597  0.72843671     0.76800
C1303       C  0.74995566  0.68105216  0.74233186     0.77200
C1304       C  0.82269676  0.75354776  0.76078995     0.78300
C1305       C  0.77143345  0.76681547  0.68312263     0.77400
C1306       C  0.52257791  0.50132494  0.75526919     0.30200
C1307       C  0.46661666  0.50270019  0.75205480     0.30200
C1308       C  0.50862063  0.52609182  0.76711744    -0.06000
C1309       C  0.50988672  0.50133745  0.72736408    -0.06800
C1310       C  0.50728334  0.47843583  0.76941707    -0.06600
C1311       C  0.48042536  0.52664977  0.76580227    -0.06000
C1312       C  0.48231120  0.50087928  0.72552658    -0.06800
C1313       C  0.47917725  0.47896115  0.76723118    -0.06600
C1314       C  0.47371577  0.55289352  0.76274656    -0.32000
N1315       N  0.49543522  0.56807910  0.76144952     0.14500
C1316       C  0.51641415  0.55205023  0.76374650    -0.32000
H1317       H  0.53607415  0.55840586  0.75915116     0.16400
C1318       C  0.47653791  0.49938353  0.69855880    -0.31000
N1319       N  0.49930456  0.50100213  0.68475388     0.13200
C1320       C  0.51959011  0.50291871  0.70181488    -0.31000
C1321       C  0.47171912  0.45281455  0.76481548    -0.31300
N1322       N  0.49270741  0.43681757  0.76703389     0.13700
H1323       H  0.45291210  0.44612633  0.75752457     0.16300
C1324       C  0.51416714  0.45205058  0.77032358    -0.31300
H1325       H  0.53390242  0.44452097  0.76936830     0.16300
H1326       H  0.53983502  0.50503103  0.69576184     0.16300
H1327       H  0.45438073  0.55990977  0.75784875     0.16400
H1328       H  0.45743316  0.49754312  0.68939640     0.16300
Zn1329     Zn  0.51795556  0.48476666  0.48338783     1.49700
Zn1330     Zn  0.51148112  0.53152490  0.51941605     1.49400
Zn1331     Zn  0.46605838  0.51992965  0.47915525     1.49100
Zn1332     Zn  0.47351315  0.48243347  0.52509605     1.49500
O1333       O  0.49219648  0.50469958  0.50161970    -1.83900
O1334       O  0.55428297  0.49579006  0.49119825    -0.74500
O1335       O  0.49240456  0.56475891  0.51722364    -0.74400
O1336       O  0.47886424  0.51861523  0.44226039    -0.73900
O1337       O  0.54787624  0.53651724  0.50584401    -0.74600
O1338       O  0.51277924  0.49129232  0.44526609    -0.74200
O1339       O  0.45929673  0.55723262  0.48926888    -0.74700
O1340       O  0.43545871  0.48780365  0.52388990    -0.74100
O1341       O  0.51432056  0.52209124  0.55768228    -0.74900
O1342       O  0.43173198  0.50152979  0.48133676    -0.74300
O1343       O  0.48556945  0.48945883  0.56107471    -0.74800
O1344       O  0.47988525  0.44502350  0.51683877    -0.74700
O1345       O  0.51411903  0.44673173  0.48912178    -0.74400
C1346       C  0.56297067  0.51844747  0.49734264     0.77300
C1347       C  0.47189375  0.57232586  0.50509269     0.77800
C1348       C  0.49723035  0.50547613  0.43157003     0.76800
C1349       C  0.42167958  0.49307926  0.50324683     0.77200
C1350       C  0.50201024  0.50510129  0.57153922     0.78300
C1351       C  0.49721659  0.43383936  0.50245421     0.77400
C1352       C  0.50149047  0.46837825  0.25195611     0.30200
C1353       C  0.50070483  0.52432381  0.25023681     0.30200
C1354       C  0.47620323  0.48155619  0.24072123    -0.06000
C1355       C  0.50358401  0.48332038  0.27888099    -0.06800
C1356       C  0.52390914  0.48203772  0.23543934    -0.06600
C1357       C  0.47591661  0.50976895  0.23924329    -0.06000
C1358       C  0.50430255  0.51106970  0.27763736    -0.06800
C1359       C  0.52393446  0.51054529  0.23533242    -0.06600
C1360       C  0.44979745  0.51716995  0.24207194    -0.32000
N1361       N  0.43467685  0.49568229  0.24679717     0.14500
C1362       C  0.45047429  0.47428212  0.24634277    -0.32000
H1363       H  0.44421035  0.45500007  0.25315759     0.16400
C1364       C  0.51044646  0.52009382  0.30268995    -0.31000
N1365       N  0.51108209  0.49915317  0.31935059     0.13200
C1366       C  0.50615591  0.47674364  0.30555737    -0.31000
C1367       C  0.55017298  0.51758257  0.23846776    -0.31300
N1368       N  0.56558507  0.49592197  0.23912787     0.13700
H1369       H  0.55699509  0.53691429  0.24449175     0.16300
C1370       C  0.55003741  0.47458202  0.23645269    -0.31300
H1371       H  0.55702669  0.45460544  0.23859761     0.16300
H1372       H  0.50375572  0.45743606  0.31461480     0.16300
H1373       H  0.44276114  0.53719939  0.24386219     0.16400
H1374       H  0.51283681  0.54041505  0.30895084     0.16300
C1375       C  0.73473606  0.49993766  0.53815627     0.30200
C1376       C  0.74011127  0.50190177  0.48165570     0.30200
C1377       C  0.74661159  0.47560605  0.52435188    -0.06000
C1378       C  0.70943810  0.50422218  0.52152950    -0.06800
C1379       C  0.75155101  0.52281699  0.52672557    -0.06600
C1380       C  0.74938149  0.47661504  0.49594499    -0.06000
C1381       C  0.71256243  0.50559525  0.49320465    -0.06800
C1382       C  0.75464550  0.52381480  0.49778867    -0.06600
C1383       C  0.75184190  0.45098879  0.48706707    -0.32000
N1384       N  0.74999980  0.43464909  0.50872783     0.14500
C1385       C  0.74651483  0.44930059  0.53146179    -0.32000
H1386       H  0.74197172  0.44133791  0.55133071     0.16400
C1387       C  0.69048604  0.51681913  0.48273573    -0.31000
N1388       N  0.67325474  0.52094115  0.50314905     0.13200
C1389       C  0.68481673  0.51407871  0.52692120    -0.31000
C1390       C  0.75543758  0.55044467  0.49146178    -0.31300
N1391       N  0.75292573  0.56516278  0.51421828     0.13700
H1392       H  0.75465706  0.55859786  0.47120387     0.16300
C1393       C  0.75066663  0.54866779  0.53560500    -0.31300
H1394       H  0.74480740  0.55491049  0.55575289     0.16300
H1395       H  0.67581004  0.51624292  0.54661092     0.16300
H1396       H  0.75222013  0.44448284  0.46613430     0.16400
H1397       H  0.68708419  0.52156824  0.46159046     0.16300
C1398       C  0.50170684  0.74536048  0.52088787     0.30200
C1399       C  0.50236267  0.73870028  0.46494312     0.30200
C1400       C  0.52543416  0.75672639  0.50565239    -0.06000
C1401       C  0.50036690  0.71695082  0.51051684    -0.06800
C1402       C  0.47810009  0.75741518  0.50541997    -0.06600
C1403       C  0.52593518  0.75310040  0.47735913    -0.06000
C1404       C  0.50114807  0.71319252  0.48208265    -0.06800
C1405       C  0.47842791  0.75380977  0.47664139    -0.06600
C1406       C  0.55206669  0.75268405  0.46995055    -0.32000
N1407       N  0.56711571  0.75744401  0.49209044     0.14500
C1408       C  0.55102909  0.75960717  0.51386660    -0.32000
H1409       H  0.55768142  0.76010265  0.53470539     0.16400
C1410       C  0.48707044  0.69044520  0.47735391    -0.31000
N1411       N  0.47808982  0.68044389  0.50107407     0.13200
C1412       C  0.48555952  0.69693042  0.52111406    -0.31000
C1413       C  0.45256089  0.75091044  0.46878167    -0.31300
N1414       N  0.43678113  0.75255533  0.49076607     0.13700
H1415       H  0.44606944  0.74438303  0.44897594     0.16300
C1416       C  0.45194452  0.75611865  0.51289424    -0.31300
H1417       H  0.44463151  0.75447500  0.53344787     0.16300
H1418       H  0.47903591  0.69571272  0.54200570     0.16300
H1419       H  0.55960083  0.74685418  0.45028310     0.16400
H1420       H  0.48313868  0.68221322  0.45767541     0.16300
C1421       C  0.24625015  0.49496813  0.54079252     0.30200
C1422       C  0.24350852  0.49867528  0.48424922     0.30200
C1423       C  0.23073497  0.51851057  0.52913692    -0.06000
C1424       C  0.27214375  0.49641664  0.52524566    -0.06800
C1425       C  0.23349574  0.47109922  0.52604920    -0.06600
C1426       C  0.22966950  0.52059933  0.50043493    -0.06000
C1427       C  0.27094624  0.49872003  0.49691064    -0.06800
C1428       C  0.23259661  0.47318840  0.49709213    -0.06600
C1429       C  0.22867986  0.54727230  0.49489393    -0.32000
N1430       N  0.22770650  0.56109794  0.51844991     0.14500
C1431       C  0.22868195  0.54377668  0.53927040    -0.32000
H1432       H  0.23188006  0.54945467  0.56017356     0.16400
C1433       C  0.29554755  0.49318042  0.48718737    -0.31000
N1434       N  0.31126403  0.48760955  0.50849403     0.13200
C1435       C  0.29694659  0.48852700  0.53158079    -0.31000
C1436       C  0.23662533  0.44820033  0.48711903    -0.31300
N1437       N  0.23886517  0.43083314  0.50767294     0.13700
H1438       H  0.24080922  0.44349039  0.46609955     0.16300
C1439       C  0.23724186  0.44442657  0.53129792    -0.31300
H1440       H  0.24052122  0.43589624  0.55106837     0.16300
H1441       H  0.30417636  0.48373243  0.55164084     0.16300
H1442       H  0.23232161  0.55606386  0.47519120     0.16400
H1443       H  0.30167027  0.49301224  0.46618559     0.16300
C1444       C  0.49474880  0.25542602  0.52000397     0.30200
C1445       C  0.49568329  0.25600014  0.46310335     0.30200
C1446       C  0.47188271  0.24129659  0.50568979    -0.06000
C1447       C  0.49326390  0.28231205  0.50595932    -0.06800
C1448       C  0.51862888  0.24253113  0.50625452    -0.06600
C1449       C  0.47254998  0.24105421  0.47674213    -0.06000
C1450       C  0.49490061  0.28267942  0.47755167    -0.06800
C1451       C  0.51974806  0.24362397  0.47740546    -0.06600
C1452       C  0.44692421  0.23847890  0.46829616    -0.32000
N1453       N  0.43092600  0.23833888  0.49022647     0.14500
C1454       C  0.44573727  0.24098557  0.51273399    -0.32000
H1455       H  0.43780593  0.24546995  0.53259547     0.16400
C1456       C  0.49622516  0.30857474  0.46974267    -0.31000
N1457       N  0.49334241  0.32340719  0.49227042     0.13200
C1458       C  0.49098731  0.30786492  0.51435248    -0.31000
C1459       C  0.54616566  0.24591318  0.47128973    -0.31300
N1460       N  0.56037578  0.24410741  0.49440052     0.13700
H1461       H  0.55435936  0.25111571  0.45173595     0.16300
C1462       C  0.54386336  0.24145469  0.51554927    -0.31300
H1463       H  0.54986384  0.24208783  0.53659486     0.16300
H1464       H  0.48859729  0.31489393  0.53496391     0.16300
H1465       H  0.44012650  0.23974805  0.44755742     0.16400
H1466       H  0.49907469  0.31620931  0.44941201     0.16300
C1467       C  0.51864349  0.36328429  0.49733081    -0.08900
C1468       C  0.49448631  0.35115070  0.49324834     0.07200
C1469       C  0.47142307  0.36588813  0.49254512    -0.02700
C1470       C  0.47265636  0.39299247  0.49610238    -0.07200
C1471       C  0.49684244  0.40536582  0.50012889     0.06400
C1472       C  0.52004414  0.39044128  0.50075217    -0.02200
Br1473     Br  0.55366754  0.40573657  0.50798421    -0.01900
H1474       H  0.53623809  0.35143478  0.49841443     0.10300
H1475       H  0.45478754  0.40445921  0.49535860     0.08300
Br1476     Br  0.43815162  0.34938047  0.48707867    -0.02300
C1477       C  0.38006432  0.47516000  0.48610969    -0.08900
C1478       C  0.39351207  0.49039887  0.50524654     0.07200
C1479       C  0.37983093  0.50341729  0.52603326    -0.02700
C1480       C  0.35284048  0.50163210  0.52700733    -0.07200
C1481       C  0.33912228  0.48671435  0.50778091     0.06400
C1482       C  0.35291398  0.47287735  0.48746740    -0.02200
Br1483     Br  0.33606377  0.44952692  0.46232386    -0.01900
H1484       H  0.39074394  0.46475533  0.47038447     0.10300
H1485       H  0.34238711  0.51269985  0.54238882     0.08300
Br1486     Br  0.39674929  0.52550957  0.55239702    -0.02300
C1487       C  0.45334485  0.61308105  0.48580676    -0.08900
C1488       C  0.46406744  0.59983644  0.50814467     0.07200
C1489       C  0.47159346  0.61426904  0.53120563    -0.02700
C1490       C  0.47324921  0.64145395  0.52952415    -0.07200
C1491       C  0.46712286  0.65467475  0.50527716     0.06400
C1492       C  0.45435713  0.64053721  0.48437565    -0.02200
Br1493     Br  0.43776052  0.65692113  0.45373355    -0.01900
H1494       H  0.44599731  0.60210889  0.46855368     0.10300
H1495       H  0.48182894  0.65178629  0.54650300     0.08300
Br1496     Br  0.48197653  0.59813750  0.56483840    -0.02300
C1497       C  0.63357581  0.51167653  0.47771111    -0.08900
C1498       C  0.64581848  0.52504869  0.49915811     0.07200
C1499       C  0.63047904  0.53982969  0.51746572    -0.02700
C1500       C  0.60325427  0.53870937  0.51565178    -0.07200
C1501       C  0.59115264  0.52326666  0.49562819     0.06400
C1502       C  0.60654680  0.51083590  0.47566433    -0.02200
Br1503     Br  0.59203447  0.49236712  0.44510704    -0.01900
H1504       H  0.64504776  0.50061138  0.46314718     0.10300
H1505       H  0.59154909  0.54902426  0.53063124     0.08300
Br1506     Br  0.64544453  0.56219144  0.54474866    -0.02300
C1507       C  0.52547175  0.49920097  0.39220249    -0.08900
C1508       C  0.50076312  0.50617006  0.40253500     0.07200
C1509       C  0.47983547  0.51173908  0.38481403    -0.02700
C1510       C  0.48396007  0.50952286  0.35726441    -0.07200
C1511       C  0.50823893  0.50166067  0.34740261     0.06400
C1512       C  0.52920766  0.49671958  0.36457128    -0.02200
Br1513     Br  0.56271579  0.48633363  0.35089945    -0.01900
H1514       H  0.54176766  0.49516574  0.40559186     0.10300
H1515       H  0.46806402  0.51327206  0.34327629     0.08300
Br1516     Br  0.44479832  0.52041392  0.39598293    -0.02300
C1517       C  0.51333411  0.52330561  0.64417215    -0.08900
C1518       C  0.50196927  0.50130249  0.65645492     0.07200
C1519       C  0.49420161  0.47948075  0.64132633    -0.02700
C1520       C  0.49640062  0.48050081  0.61349809    -0.07200
C1521       C  0.50574470  0.50340289  0.60061259     0.06400
C1522       C  0.51532976  0.52468096  0.61617751    -0.02200
Br1523     Br  0.52991872  0.55658880  0.60141088    -0.01900
H1524       H  0.51987842  0.53971040  0.65651354     0.10300
H1525       H  0.48981574  0.46359954  0.60191078     0.08300
Br1526     Br  0.48067420  0.44801615  0.65786994    -0.02300
C1527       C  0.36012625  0.22425755  0.47728308    -0.08900
C1528       C  0.34772865  0.24488784  0.49153278     0.07200
C1529       C  0.36361864  0.26394113  0.50469397    -0.02700
C1530       C  0.39087339  0.26176388  0.50345531    -0.07200
C1531       C  0.40295295  0.24084395  0.48966209     0.06400
C1532       C  0.38736054  0.22202184  0.47651908    -0.02200
Br1533     Br  0.40238519  0.19160633  0.45945583    -0.01900
H1534       H  0.34861979  0.20917246  0.46734090     0.10300
H1535       H  0.40282524  0.27641830  0.51352630     0.08300
Br1536     Br  0.35015401  0.29348883  0.52486145    -0.02300
C1537       C  0.23029551  0.39059830  0.48196343    -0.08900
C1538       C  0.24304857  0.40299986  0.50372486     0.07200
C1539       C  0.26012018  0.38794841  0.52004754    -0.02700
C1540       C  0.26223828  0.36078116  0.51571987    -0.07200
C1541       C  0.24831423  0.34812260  0.49479782     0.06400
C1542       C  0.23311586  0.36370145  0.47698166    -0.02200
Br1543     Br  0.21592060  0.35038506  0.44507101    -0.01900
H1544       H  0.21773146  0.40199392  0.46872736     0.10300
H1545       H  0.27475801  0.34949016  0.52910596     0.08300
Br1546     Br  0.28263276  0.40297560  0.54708274    -0.02300
C1547       C  0.23959518  0.27528664  0.60748107    -0.08900
C1548       C  0.23964538  0.25020490  0.59573939     0.07200
C1549       C  0.23348544  0.22773014  0.61114021    -0.02700
C1550       C  0.22750644  0.23067020  0.63831240    -0.07200
C1551       C  0.22852862  0.25561053  0.65050505     0.06400
C1552       C  0.23404931  0.27822166  0.63485037    -0.02200
Br1553     Br  0.23449707  0.31339138  0.64947066    -0.01900
H1554       H  0.24358801  0.29263268  0.59525965     0.10300
H1555       H  0.22412406  0.21306886  0.65033759     0.08300
Br1556     Br  0.23545516  0.19241522  0.59696265    -0.02300
C1557       C  0.24548278  0.21044202  0.38504351    -0.08900
C1558       C  0.23255582  0.23213792  0.39680262     0.07200
C1559       C  0.21498469  0.24716790  0.38094254    -0.02700
C1560       C  0.21340873  0.24223426  0.35336069    -0.07200
C1561       C  0.22944626  0.22318865  0.34119602     0.06400
C1562       C  0.24402818  0.20585045  0.35736404    -0.02200
Br1563     Br  0.26320424  0.17651993  0.34270167    -0.01900
H1564       H  0.25778760  0.19759047  0.39708883     0.10300
H1565       H  0.20157726  0.25533406  0.34105649     0.08300
Br1566     Br  0.19393159  0.27605361  0.39401059    -0.02300
C1567       C  0.25701926  0.59792781  0.50839629    -0.08900
C1568       C  0.23427275  0.58853472  0.52093153     0.07200
C1569       C  0.21880917  0.60602718  0.53619251    -0.02700
C1570       C  0.22490166  0.63298469  0.53652880    -0.07200
C1571       C  0.24671816  0.64290825  0.52222554     0.06400
C1572       C  0.26362515  0.62464190  0.50921512    -0.02200
Br1573     Br  0.29623183  0.63406046  0.49228366    -0.01900
H1574       H  0.26974961  0.58424066  0.49785150     0.10300
H1575       H  0.21185198  0.64630003  0.54713863     0.08300
Br1576     Br  0.18840260  0.59416236  0.55545991    -0.02300
C1577       C  0.37053468  0.72484148  0.50842291    -0.08900
C1578       C  0.35421658  0.74179273  0.49381301     0.07200
C1579       C  0.36534765  0.76135148  0.47706823    -0.02700
C1580       C  0.39256951  0.76404520  0.47557823    -0.07200
C1581       C  0.40901615  0.74777126  0.49102561     0.06400
C1582       C  0.39773692  0.72767520  0.50719251    -0.02200
Br1583     Br  0.41827589  0.70303116  0.52744353    -0.01900
H1584       H  0.36207134  0.70972352  0.52129317     0.10300
H1585       H  0.40096698  0.77942158  0.46301250     0.08300
Br1586     Br  0.34395533  0.78509030  0.45637221    -0.02300
C1587       C  0.22061520  0.77339417  0.61010005    -0.08900
C1588       C  0.24593671  0.77305540  0.59897573     0.07200
C1589       C  0.26726410  0.78214490  0.61452206    -0.02700
C1590       C  0.26334180  0.78782159  0.64170784    -0.07200
C1591       C  0.23893663  0.78334994  0.65373339     0.06400
C1592       C  0.21699419  0.77849929  0.63754620    -0.02200
Br1593     Br  0.18235504  0.77686118  0.65247752    -0.01900
H1594       H  0.20381961  0.76819890  0.59784576     0.10300
H1595       H  0.28029438  0.79204379  0.65415074     0.08300
Br1596     Br  0.30293115  0.78325620  0.60198881    -0.02300
C1597       C  0.26435706  0.72167444  0.38919066    -0.08900
C1598       C  0.24203374  0.72637251  0.40480663     0.07200
C1599       C  0.21823035  0.73346514  0.39236669    -0.02700
C1600       C  0.21786793  0.73840481  0.36466604    -0.07200
C1601       C  0.24100918  0.73658781  0.34974747     0.06400
C1602       C  0.26405743  0.72696203  0.36165081    -0.02200
Br1603     Br  0.29565575  0.72097375  0.34130277    -0.01900
H1604       H  0.28260618  0.71600165  0.39869686     0.10300
H1605       H  0.19987763  0.74461276  0.35498415     0.08300
Br1606     Br  0.18616376  0.73781235  0.41236807    -0.02300
C1607       C  0.72418743  0.36548132  0.50982707    -0.08900
C1608       C  0.74622087  0.35121206  0.50100308     0.07200
C1609       C  0.76973950  0.36498871  0.49574095    -0.02700
C1610       C  0.77048076  0.39242795  0.49827922    -0.07200
C1611       C  0.74850428  0.40650545  0.50694215     0.06400
C1612       C  0.72521318  0.39291023  0.51288759    -0.02200
Br1613     Br  0.69417664  0.41112565  0.52420464    -0.01900
H1614       H  0.70604674  0.35529740  0.51422502     0.10300
H1615       H  0.78848731  0.40291083  0.49406714     0.08300
Br1616     Br  0.80218505  0.34760937  0.48750842    -0.02300
C1617       C  0.62796325  0.27292345  0.49076191    -0.08900
C1618       C  0.64215812  0.25351665  0.50465153     0.07200
C1619       C  0.62908494  0.23161762  0.51569909    -0.02700
C1620       C  0.60220212  0.22893605  0.51207071    -0.07200
C1621       C  0.58800986  0.24774642  0.49733942     0.06400
C1622       C  0.60091340  0.27039266  0.48734553    -0.02200
Br1623     Br  0.58250922  0.29892308  0.47031465    -0.01900
H1624       H  0.63801887  0.28977513  0.48211343     0.10300
H1625       H  0.59229255  0.21182726  0.52032916     0.08300
Br1626     Br  0.64741209  0.20435468  0.53488535    -0.02300
C1627       C  0.77126333  0.27337421  0.63421777    -0.08900
C1628       C  0.77352280  0.24859175  0.64672107     0.07200
C1629       C  0.77763103  0.22575121  0.63110868    -0.02700
C1630       C  0.77640679  0.22778911  0.60315353    -0.07200
C1631       C  0.76982331  0.25188489  0.59106401     0.06400
C1632       C  0.76866179  0.27513264  0.60636993    -0.02200
Br1633     Br  0.76132677  0.30913269  0.59077537    -0.01900
H1634       H  0.76879892  0.29108338  0.64630269     0.10300
H1635       H  0.77752676  0.20991823  0.59111052     0.08300
Br1636     Br  0.77962283  0.19075152  0.64605765    -0.02300
C1637       C  0.72543189  0.22954520  0.35432292    -0.08900
C1638       C  0.75062377  0.22696122  0.34333906     0.07200
C1639       C  0.77268545  0.22780697  0.36030261    -0.02700
C1640       C  0.76941450  0.23347159  0.38756188    -0.07200
C1641       C  0.74442643  0.23788375  0.39805233     0.06400
C1642       C  0.72217171  0.23507924  0.38168546    -0.02200
Br1643     Br  0.68732530  0.24127765  0.39498388    -0.01900
H1644       H  0.70837484  0.22932910  0.34130129     0.10300
H1645       H  0.78642543  0.23453310  0.40061665     0.08300
Br1646     Br  0.80763939  0.22191222  0.34743101    -0.02300
C1647       C  0.73345363  0.63443757  0.49617228    -0.08900
C1648       C  0.74865768  0.64920032  0.51448577     0.07200
C1649       C  0.76225063  0.63552734  0.53522212    -0.02700
C1650       C  0.76301313  0.60790973  0.53505805    -0.07200
C1651       C  0.74962842  0.59335989  0.51527526     0.06400
C1652       C  0.73332299  0.60687086  0.49684539    -0.02200
Br1653     Br  0.70880930  0.58902308  0.47375214    -0.01900
H1654       H  0.72166847  0.64430638  0.48099768     0.10300
H1655       H  0.77445128  0.59766870  0.55025723     0.08300
Br1656     Br  0.77917293  0.65285803  0.56511730    -0.02300
C1657       C  0.63726316  0.77059610  0.51040100    -0.08900
C1658       C  0.65036537  0.74940100  0.49788824     0.07200
C1659       C  0.63536142  0.73102614  0.48282712    -0.02700
C1660       C  0.60811127  0.73402547  0.48097858    -0.07200
C1661       C  0.59522425  0.75526275  0.49353288     0.06400
C1662       C  0.61017858  0.77379241  0.50806581    -0.02200
Br1663     Br  0.59486172  0.80503565  0.52325136    -0.01900
H1664       H  0.64825249  0.78534635  0.52145959     0.10300
H1665       H  0.59684010  0.71948386  0.46995095     0.08300
Br1666     Br  0.65039700  0.70090921  0.46502130    -0.02300
C1667       C  0.78690257  0.76485580  0.39610232    -0.08900
C1668       C  0.77753063  0.74177971  0.40863658     0.07200
C1669       C  0.77457077  0.71854711  0.39355743    -0.02700
C1670       C  0.77657310  0.71998717  0.36556705    -0.07200
C1671       C  0.78147515  0.74419986  0.35281052     0.06400
C1672       C  0.78886716  0.76627862  0.36810354    -0.02200
Br1673     Br  0.79741770  0.79987282  0.35228755    -0.01900
H1674       H  0.79025620  0.78265857  0.40776755     0.10300
H1675       H  0.77220696  0.70269179  0.35362219     0.08300
Br1676     Br  0.76676411  0.68494843  0.40975532    -0.02300
C1677       C  0.79046279  0.75080485  0.61236108    -0.08900
C1678       C  0.77340528  0.76791109  0.59876804     0.07200
C1679       C  0.76359960  0.79026640  0.61237572    -0.02700
C1680       C  0.76579325  0.79156065  0.64046741    -0.07200
C1681       C  0.77849248  0.77130519  0.65470154     0.06400
C1682       C  0.79364331  0.75274420  0.64022162    -0.02200
Br1683     Br  0.81778354  0.72857450  0.65695396    -0.01900
H1684       H  0.80005729  0.73478777  0.60171517     0.10300
H1685       H  0.75582374  0.80729055  0.65118527     0.08300
Br1686     Br  0.74706440  0.81929169  0.59403329    -0.02300
C1687       C  0.73905845  0.11354485  0.78702224    -0.08900
C1688       C  0.74268613  0.09727993  0.76435841     0.07200
C1689       C  0.74268365  0.10825653  0.73803502    -0.02700
C1690       C  0.74211796  0.13544266  0.73499439    -0.07200
C1691       C  0.74000945  0.15182316  0.75770949     0.06400
C1692       C  0.73734277  0.14077193  0.78386327    -0.02200
Br1693     Br  0.73295615  0.16158989  0.81608915    -0.01900
H1694       H  0.73819638  0.10512883  0.80725145     0.10300
H1695       H  0.74308250  0.14386336  0.71476532     0.08300
Br1696     Br  0.74134697  0.08733190  0.70546836    -0.02300
C1697       C  0.72848330  0.89037776  0.78091306    -0.08900
C1698       C  0.75237697  0.90270313  0.78676881     0.07200
C1699       C  0.77421430  0.88720922  0.79402401    -0.02700
C1700       C  0.77250228  0.85981980  0.79177225    -0.07200
C1701       C  0.74934858  0.84793358  0.78267547     0.06400
C1702       C  0.72683459  0.86318926  0.77882707    -0.02200
Br1703     Br  0.69354764  0.84791753  0.77016600    -0.01900
H1704       H  0.71117681  0.90200769  0.77671062     0.10300
H1705       H  0.78978986  0.84795142  0.79530241     0.08300
Br1706     Br  0.80735489  0.90181235  0.80461491    -0.02300
C1707       C  0.70385303  0.10802937  0.49848733    -0.08900
C1708       C  0.72396241  0.09341166  0.51039866     0.07200
C1709       C  0.74517208  0.10643155  0.52248831    -0.02700
C1710       C  0.74664099  0.13382819  0.52128315    -0.07200
C1711       C  0.72737415  0.14872600  0.50779263     0.06400
C1712       C  0.70527843  0.13547886  0.49701807    -0.02200
Br1713     Br  0.67659178  0.15273538  0.47914998    -0.01900
H1714       H  0.68744505  0.09787792  0.48933697     0.10300
H1715       H  0.76362883  0.14333413  0.52997856     0.08300
Br1716     Br  0.77359224  0.08757064  0.53900733    -0.02300
C1717       C  0.71532086  0.89062619  0.49662820    -0.08900
C1718       C  0.73848857  0.90525206  0.49466623     0.07200
C1719       C  0.76258135  0.89237020  0.49168666    -0.02700
C1720       C  0.76335501  0.86496816  0.49188961    -0.07200
C1721       C  0.74030537  0.85014882  0.49485354     0.06400
C1722       C  0.71603026  0.86311361  0.49656955    -0.02200
Br1723     Br  0.68343440  0.84436777  0.49748624    -0.01900
H1724       H  0.69670388  0.90069445  0.49830560     0.10300
H1725       H  0.78217002  0.85522201  0.49053235     0.08300
Br1726     Br  0.79485128  0.91145475  0.48838269    -0.02300
C1727       C  0.75578327  0.01011617  0.61625072    -0.08900
C1728       C  0.73734969  0.99323085  0.60419722     0.07200
C1729       C  0.72328869  0.97603474  0.62153110    -0.02700
C1730       C  0.72732186  0.97648573  0.64994843    -0.07200
C1731       C  0.74536753  0.99387559  0.66223957     0.06400
C1732       C  0.76000358  0.01054876  0.64457159    -0.02200
Br1733     Br  0.78679231  0.03414111  0.65702810    -0.01900
H1734       H  0.76712216  0.02318696  0.60339161     0.10300
H1735       H  0.71578700  0.96337819  0.66255378     0.08300
Br1736     Br  0.69743919  0.95225943  0.60757498    -0.02300
C1737       C  0.72888746  0.88821055  0.23997617    -0.08900
C1738       C  0.75205535  0.90140952  0.24687742     0.07200
C1739       C  0.77148736  0.88785078  0.26166162    -0.02700
C1740       C  0.76793534  0.86136196  0.26791573    -0.07200
C1741       C  0.74552396  0.84763900  0.25944399     0.06400
C1742       C  0.72529637  0.86167292  0.24631449    -0.02200
Br1743     Br  0.69217036  0.84647119  0.23654796    -0.01900
H1744       H  0.71324948  0.89865870  0.22977157     0.10300
H1745       H  0.78366578  0.85115681  0.27821420     0.08300
Br1746     Br  0.80430399  0.90316809  0.27238158    -0.02300
C1747       C  0.72978976  0.10962543  0.21662864    -0.08900
C1748       C  0.75406323  0.09686660  0.21736351     0.07200
C1749       C  0.77730140  0.11172890  0.21697731    -0.02700
C1750       C  0.77582422  0.13919110  0.21760248    -0.07200
C1751       C  0.75147422  0.15187707  0.21876052     0.06400
C1752       C  0.72834410  0.13700494  0.21725317    -0.02200
Br1753     Br  0.69440434  0.15313004  0.21606162    -0.01900
H1754       H  0.71187550  0.09821573  0.21635537     0.10300
H1755       H  0.79369959  0.15058336  0.21891129     0.08300
Br1756     Br  0.81131040  0.09567339  0.21892354    -0.02300
C1757       C  0.72477357  0.01892717  0.35297490    -0.08900
C1758       C  0.74778384  0.00815859  0.34153551     0.07200
C1759       C  0.76653214  0.99774098  0.35993293    -0.02700
C1760       C  0.76143849  0.99696125  0.38814056    -0.07200
C1761       C  0.73812866  0.00694329  0.39933210     0.06400
C1762       C  0.71996349  0.01852684  0.38129268    -0.02200
Br1763     Br  0.68778604  0.03333092  0.39424030    -0.01900
H1764       H  0.71002813  0.02727422  0.33976470     0.10300
H1765       H  0.77599499  0.98860281  0.40158337     0.08300
Br1766     Br  0.80027520  0.98548540  0.34848673    -0.02300
C1767       C  0.64312654  0.00388885  0.26382422    -0.08900
C1768       C  0.65321166  0.99585894  0.23851157     0.07200
C1769       C  0.63560638  0.98696341  0.21837570    -0.02700
C1770       C  0.60868543  0.98652724  0.22386179    -0.07200
C1771       C  0.59884882  0.99484453  0.24909190     0.06400
C1772       C  0.61633288  0.00341383  0.26920140    -0.02200
Br1773     Br  0.60449352  0.01476549  0.30429470    -0.01900
H1774       H  0.65618560  0.01050614  0.27971788     0.10300
H1775       H  0.59526362  0.98011227  0.20820842     0.08300
Br1776     Br  0.64661538  0.97679727  0.18255807    -0.02300
C1777       C  0.28490677  0.10947842  0.23177212    -0.08900
C1778       C  0.26214249  0.09845502  0.22030982     0.07200
C1779       C  0.24371205  0.11527568  0.20788222    -0.02700
C1780       C  0.24762851  0.14238414  0.20866621    -0.07200
C1781       C  0.26913206  0.15328930  0.22226464     0.06400
C1782       C  0.28835287  0.13665999  0.23318254    -0.02200
Br1783     Br  0.31926694  0.14980348  0.25066795    -0.01900
H1784       H  0.29976813  0.09697088  0.24068726     0.10300
H1785       H  0.23255753  0.15508804  0.20040937     0.08300
Br1786     Br  0.21144276  0.10360098  0.19195682    -0.02300
C1787       C  0.26615590  0.88458886  0.21380705    -0.08900
C1788       C  0.26246771  0.90080928  0.23651011     0.07200
C1789       C  0.26072947  0.88930478  0.26265284    -0.02700
C1790       C  0.26143546  0.86197818  0.26541613    -0.07200
C1791       C  0.26355083  0.84573448  0.24257983     0.06400
C1792       C  0.26650980  0.85719905  0.21658260    -0.02200
Br1793     Br  0.27137303  0.83663755  0.18416259    -0.01900
H1794       H  0.26790846  0.89319141  0.19372576     0.10300
H1795       H  0.25926832  0.85336323  0.28545360     0.08300
Br1796     Br  0.25779298  0.90950232  0.29560389    -0.02300
C1797       C  0.36584721  0.99549499  0.26340450    -0.08900
C1798       C  0.35630230  0.99862482  0.23677779     0.07200
C1799       C  0.37445117  0.00141859  0.21532160    -0.02700
C1800       C  0.40140677  0.00044937  0.22067027    -0.07200
C1801       C  0.41077188  0.99691284  0.24723632     0.06400
C1802       C  0.39273167  0.99459287  0.26870227    -0.02200
Br1803     Br  0.40409423  0.99077836  0.30560753    -0.01900
H1804       H  0.35228997  0.99363742  0.28024103     0.10300
H1805       H  0.41516711  0.00285104  0.20409415     0.08300
Br1806     Br  0.36360570  0.00886518  0.17884460    -0.02300
C1807       C  0.21943500  0.10291081  0.50906958    -0.08900
C1808       C  0.24245851  0.08884348  0.50431967     0.07200
C1809       C  0.26599108  0.10232187  0.49956019    -0.02700
C1810       C  0.26608562  0.12977272  0.49859141    -0.07200
C1811       C  0.24298088  0.14415512  0.50281295     0.06400
C1812       C  0.21943196  0.13041680  0.50850213    -0.02200
Br1813     Br  0.18620894  0.14733238  0.51420678    -0.01900
H1814       H  0.20133479  0.09237522  0.51272479     0.10300
H1815       H  0.28435565  0.13989495  0.49465228     0.08300
Br1816     Br  0.29841244  0.08391947  0.49449650    -0.02300
C1817       C  0.24179529  0.88716593  0.47715404    -0.08900
C1818       C  0.26242017  0.90021945  0.48994484     0.07200
C1819       C  0.28327142  0.88570275  0.50085268    -0.02700
C1820       C  0.28284227  0.85822665  0.49940472    -0.07200
C1821       C  0.26158668  0.84483026  0.48756499     0.06400
C1822       C  0.24099019  0.85975856  0.47599325    -0.02200
Br1823     Br  0.20987956  0.84491529  0.46033736    -0.01900
H1824       H  0.22566503  0.89847419  0.46891248     0.10300
H1825       H  0.29883874  0.84732649  0.50842731     0.08300
Br1826     Br  0.31199701  0.90251600  0.51890276    -0.02300
C1827       C  0.27111131  0.01551096  0.38262369    -0.08900
C1828       C  0.25097151  0.00182468  0.39602168     0.07200
C1829       C  0.23114851  0.99029628  0.38013249    -0.02700
C1830       C  0.23242645  0.99128141  0.35161082    -0.07200
C1831       C  0.25294460  0.00432937  0.33792001     0.06400
C1832       C  0.27217245  0.01711134  0.35403336    -0.02200
Br1833     Br  0.30095702  0.03649650  0.33879790    -0.01900
H1834       H  0.28628760  0.02485048  0.39453646     0.10300
H1835       H  0.21702883  0.98187073  0.34007827     0.08300
Br1836     Br  0.20134292  0.97379630  0.39657105    -0.02300
C1837       C  0.23069397  0.88526305  0.78540083    -0.08900
C1838       C  0.25414942  0.89931207  0.78343835     0.07200
C1839       C  0.27818850  0.88579353  0.78324544    -0.02700
C1840       C  0.27822570  0.85830892  0.78302796    -0.07200
C1841       C  0.25462694  0.84423609  0.78321147     0.06400
C1842       C  0.23070327  0.85785586  0.78530388    -0.02200
Br1843     Br  0.19730487  0.84055764  0.78381163    -0.01900
H1844       H  0.21218955  0.89568439  0.78565050     0.10300
H1845       H  0.29663699  0.84790611  0.78097413     0.08300
Br1846     Br  0.31118961  0.90358879  0.77966135    -0.02300
C1847       C  0.22341651  0.13481990  0.74299347    -0.08900
C1848       C  0.24705085  0.14851260  0.74678486     0.07200
C1849       C  0.26989671  0.13426677  0.75373315    -0.02700
C1850       C  0.26831187  0.10731388  0.75822470    -0.07200
C1851       C  0.24454335  0.09410863  0.75577948     0.06400
C1852       C  0.22208323  0.10766371  0.74730902    -0.02200
Br1853     Br  0.18981462  0.08971871  0.74001612    -0.01900
H1854       H  0.20581985  0.14525144  0.73715115     0.10300
H1855       H  0.28580631  0.09651332  0.76376955     0.08300
Br1856     Br  0.30422193  0.14946320  0.75687295    -0.02300
C1857       C  0.22307924  0.98013851  0.64459389    -0.08900
C1858       C  0.24626701  0.98623621  0.65884730     0.07200
C1859       C  0.26884501  0.99181755  0.64301771    -0.02700
C1860       C  0.26797040  0.99148133  0.61445834    -0.07200
C1861       C  0.24478216  0.98632148  0.60034974     0.06400
C1862       C  0.22214135  0.98051335  0.61578351    -0.02200
Br1863     Br  0.18935022  0.97405197  0.59823232    -0.01900
H1864       H  0.20534628  0.97600118  0.65587020     0.10300
H1865       H  0.28555880  0.99595751  0.60304894     0.08300
Br1866     Br  0.30202044  0.99991852  0.65869569    -0.02300
C1867       C  0.61181078  0.00067906  0.73640622    -0.08900
C1868       C  0.59532216  0.00176427  0.75911566     0.07200
C1869       C  0.60637401  0.00215580  0.78529998    -0.02700
C1870       C  0.63362464  0.00157097  0.78837868    -0.07200
C1871       C  0.65020342  0.99982156  0.76562324     0.06400
C1872       C  0.63896210  0.99951783  0.73938874    -0.02200
Br1873     Br  0.65949200  0.99887878  0.70665708    -0.01900
H1874       H  0.60342912  0.00051783  0.71621133     0.10300
H1875       H  0.64185770  0.00185265  0.80863436     0.08300
Br1876     Br  0.58491644  0.00277170  0.81729193    -0.02300
C1877       C  0.38806989  0.99251780  0.73371884    -0.08900
C1878       C  0.40399485  0.00221552  0.75451849     0.07200
C1879       C  0.39252003  0.01007293  0.77927287    -0.02700
C1880       C  0.36532131  0.00879358  0.78261995    -0.07200
C1881       C  0.34930340  0.99954200  0.76156820     0.06400
C1882       C  0.36102333  0.99078825  0.73721432    -0.02200
Br1883     Br  0.34144717  0.97358161  0.70930747    -0.01900
H1884       H  0.39684040  0.98560128  0.71497182     0.10300
H1885       H  0.35666215  0.01518467  0.80160999     0.08300
Br1886     Br  0.41342084  0.02176417  0.80922236    -0.02300
C1887       C  0.22550546  0.48809019  0.40660070    -0.08900
C1888       C  0.24653683  0.50019505  0.39260729     0.07200
C1889       C  0.26470273  0.51408963  0.40909377    -0.02700
C1890       C  0.26205199  0.51477809  0.43779649    -0.07200
C1891       C  0.24242408  0.50072701  0.45205422     0.06400
C1892       C  0.22301249  0.48861523  0.43538898    -0.02200
Br1893     Br  0.19106066  0.47428641  0.44976463    -0.01900
H1894       H  0.21044926  0.47820339  0.39501124     0.10300
H1895       H  0.27595779  0.52643140  0.44913316     0.08300
Br1896     Br  0.29422418  0.53256142  0.39431298    -0.02300
C1897       C  0.37326927  0.48723545  0.28953486    -0.08900
C1898       C  0.35368856  0.49488040  0.27109950     0.07200
C1899       C  0.36145117  0.50333578  0.24490801    -0.02700
C1900       C  0.38802754  0.50420436  0.23758610    -0.07200
C1901       C  0.40755975  0.49593215  0.25561620     0.06400
C1902       C  0.39993823  0.48740828  0.28188672    -0.02200
Br1903     Br  0.42537775  0.47622542  0.30806335    -0.01900
H1904       H  0.36780572  0.48046914  0.30963547     0.10300
H1905       H  0.39348279  0.51074602  0.21740927     0.08300
Br1906     Br  0.33621750  0.51402894  0.21825326    -0.02300
C1907       C  0.27343426  0.63370375  0.26814737    -0.08900
C1908       C  0.24939891  0.64500819  0.26075847     0.07200
C1909       C  0.22665558  0.62940280  0.26065409    -0.02700
C1910       C  0.22833389  0.60293223  0.26773929    -0.07200
C1911       C  0.25233973  0.59153919  0.27497867     0.06400
C1912       C  0.27506435  0.60715391  0.27541619    -0.02200
Br1913     Br  0.30893777  0.59314746  0.28403915    -0.01900
H1914       H  0.29099800  0.64564255  0.26855489     0.10300
H1915       H  0.21078347  0.59097565  0.26700635     0.08300
Br1916     Br  0.19307734  0.64241653  0.24938030    -0.02300
C1917       C  0.27101493  0.35336533  0.28748036    -0.08900
C1918       C  0.24679224  0.34034301  0.28729845     0.07200
C1919       C  0.22396744  0.35451919  0.29422250    -0.02700
C1920       C  0.22547962  0.38184304  0.29755512    -0.07200
C1921       C  0.24927402  0.39512005  0.29372459     0.06400
C1922       C  0.27243433  0.38053368  0.29023184    -0.02200
Br1923     Br  0.30650182  0.39641822  0.28757949    -0.01900
H1924       H  0.28891551  0.34260350  0.28344184     0.10300
H1925       H  0.20764995  0.39292214  0.30092306     0.08300
Br1926     Br  0.18987473  0.33878971  0.29639531    -0.02300
C1927       C  0.49904709  0.75359964  0.38641058    -0.08900
C1928       C  0.50423653  0.72895500  0.37403803     0.07200
C1929       C  0.51002402  0.70776446  0.39187418    -0.02700
C1930       C  0.51038983  0.71147922  0.42044722    -0.07200
C1931       C  0.50363670  0.73574117  0.43299879     0.06400
C1932       C  0.49902108  0.75718398  0.41499505    -0.02200
Br1933     Br  0.49339799  0.79247407  0.42786637    -0.01900
H1934       H  0.49521131  0.77059068  0.37367988     0.10300
H1935       H  0.51664583  0.69503813  0.43274233     0.08300
Br1936     Br  0.51639099  0.67264331  0.37891252    -0.02300
C1937       C  0.51523732  0.57255928  0.23432756    -0.08900
C1938       C  0.49975893  0.55633788  0.25172929     0.07200
C1939       C  0.48414703  0.57107568  0.27089976    -0.02700
C1940       C  0.48587865  0.59918747  0.27336772    -0.07200
C1941       C  0.50188164  0.61494684  0.25656680     0.06400
C1942       C  0.51614369  0.60085538  0.23637227    -0.02200
Br1943     Br  0.53740552  0.61962758  0.21076366    -0.01900
H1944       H  0.52665181  0.56330412  0.21847058     0.10300
H1945       H  0.47396503  0.60899166  0.28851941     0.08300
Br1946     Br  0.45915503  0.55507940  0.29508809    -0.02300
C1947       C  0.64134115  0.73282427  0.24077047    -0.08900
C1948       C  0.65479766  0.73291342  0.26559752     0.07200
C1949       C  0.64102939  0.72711722  0.28978862    -0.02700
C1950       C  0.61407998  0.72266492  0.28878378    -0.07200
C1951       C  0.60057105  0.72389223  0.26405940     0.06400
C1952       C  0.61455333  0.72821514  0.23978555    -0.02200
Br1953     Br  0.59837247  0.72715260  0.20458180    -0.01900
H1954       H  0.65173486  0.73628554  0.22189234     0.10300
H1955       H  0.60345355  0.71941409  0.30755806     0.08300
Br1956     Br  0.65716606  0.72691990  0.32498584    -0.02300
C1957       C  0.39265411  0.75043160  0.28003906    -0.08900
C1958       C  0.40452570  0.72879722  0.26694970     0.07200
C1959       C  0.38839975  0.71008034  0.25393872    -0.02700
C1960       C  0.36162484  0.71465405  0.25204398    -0.07200
C1961       C  0.34995005  0.73702214  0.26380547     0.06400
C1962       C  0.36566408  0.75442881  0.27906860    -0.02200
Br1963     Br  0.35220381  0.78422247  0.29882233    -0.01900
H1964       H  0.40442900  0.76470926  0.29086839     0.10300
H1965       H  0.34977919  0.70024001  0.24147429     0.08300
Br1966     Br  0.40077230  0.67713538  0.23940928    -0.02300
C1967       C  0.49073776  0.85070362  0.28219229    -0.08900
C1968       C  0.50528531  0.83554245  0.26323814     0.07200
C1969       C  0.51993472  0.85047729  0.24380977    -0.02700
C1970       C  0.51923492  0.87861862  0.24339918    -0.07200
C1971       C  0.50462124  0.89366085  0.26227683     0.06400
C1972       C  0.49052008  0.87888294  0.28202421    -0.02200
Br1973     Br  0.47160469  0.89633050  0.31046714    -0.01900
H1974       H  0.47953010  0.84058111  0.29769715     0.10300
H1975       H  0.53043804  0.88893139  0.22801393     0.08300
Br1976     Br  0.54183085  0.83414756  0.21691004    -0.02300
C1977       C  0.72629279  0.48554308  0.40427597    -0.08900
C1978       C  0.74467007  0.50094522  0.38984917     0.07200
C1979       C  0.76179697  0.51651941  0.40605845    -0.02700
C1980       C  0.76047290  0.51603396  0.43492789    -0.07200
C1981       C  0.74166639  0.50113453  0.44944689     0.06400
C1982       C  0.72468636  0.48532282  0.43308669    -0.02200
Br1983     Br  0.69844117  0.46228254  0.44807655    -0.01900
H1984       H  0.71291653  0.47315892  0.39300576     0.10300
H1985       H  0.77486505  0.52727593  0.44597523     0.08300
Br1986     Br  0.78736860  0.53982357  0.39055512    -0.02300
C1987       C  0.63895061  0.49909168  0.23787214    -0.08900
C1988       C  0.64581376  0.49491074  0.26530782     0.07200
C1989       C  0.62534749  0.49079847  0.28422798    -0.02700
C1990       C  0.59901005  0.49107704  0.27546378    -0.07200
C1991       C  0.59255695  0.49535111  0.24796197     0.06400
C1992       C  0.61284214  0.49927602  0.22926711    -0.02200
Br1993     Br  0.60535402  0.50482615  0.19160826    -0.01900
H1994       H  0.65407920  0.50217571  0.22282299     0.10300
H1995       H  0.58347249  0.48832523  0.29014991     0.08300
Br1996     Br  0.63217357  0.48654110  0.32227123    -0.02300
C1997       C  0.73979251  0.35336850  0.29455653    -0.08900
C1998       C  0.76282064  0.34336138  0.28302963     0.07200
C1999       C  0.78388659  0.36027653  0.27779191    -0.02700
C2000       C  0.78043370  0.38736533  0.28093436    -0.07200
C2001       C  0.75626779  0.39781929  0.28956416     0.06400
C2002       C  0.73641060  0.38041036  0.29825232    -0.02200
Br2003     Br  0.70331758  0.39178162  0.31259674    -0.01900
H2004       H  0.72371375  0.34015571  0.29914185     0.10300
H2005       H  0.79629900  0.40038081  0.27514390     0.08300
Br2006     Br  0.81644928  0.34776430  0.26326704    -0.02300
C2007       C  0.75631658  0.60904747  0.29470546    -0.08900
C2008       C  0.75771715  0.59304836  0.27172993     0.07200
C2009       C  0.76270316  0.60416358  0.24605196    -0.02700
C2010       C  0.76423982  0.63142545  0.24342737    -0.07200
C2011       C  0.76104081  0.64773660  0.26617724     0.06400
C2012       C  0.75807960  0.63627082  0.29222638    -0.02200
Br2013     Br  0.75709992  0.65602842  0.32544904    -0.01900
H2014       H  0.75331520  0.60034275  0.31459455     0.10300
H2015       H  0.76723586  0.63985820  0.22342884     0.08300
Br2016     Br  0.76861594  0.58300608  0.21425073    -0.02300
C2017       C  0.48031325  0.27674469  0.38702957    -0.08900
C2018       C  0.49885750  0.26251749  0.37187804     0.07200
C2019       C  0.51451108  0.24433974  0.38631636    -0.02700
C2020       C  0.51289160  0.24213553  0.41503668    -0.07200
C2021       C  0.49537272  0.25747974  0.43086524     0.06400
C2022       C  0.47785761  0.27394242  0.41563961    -0.02200
Br2023     Br  0.44887800  0.29273188  0.43143321    -0.01900
H2024       H  0.46698778  0.28971657  0.37636620     0.10300
H2025       H  0.52511569  0.22759509  0.42480090     0.08300
Br2026     Br  0.53819759  0.22151242  0.36733521    -0.02300
C2027       C  0.48418052  0.42053379  0.23886190    -0.08900
C2028       C  0.50227741  0.43629525  0.25367594     0.07200
C2029       C  0.52050898  0.42089167  0.26948279    -0.02700
C2030       C  0.51918413  0.39265533  0.27098436    -0.07200
C2031       C  0.50057490  0.37729399  0.25685657     0.06400
C2032       C  0.48287240  0.39229188  0.24057884    -0.02200
Br2033     Br  0.45520294  0.37574034  0.22062089    -0.01900
H2034       H  0.47073547  0.43010861  0.22515146     0.10300
H2035       H  0.53346768  0.38244661  0.28333185     0.08300
Br2036     Br  0.54905189  0.43556627  0.28984935    -0.02300
C2037       C  0.39230437  0.25711101  0.28209882    -0.08900
C2038       C  0.40611237  0.26257493  0.25806971     0.07200
C2039       C  0.39234758  0.26591640  0.23354783    -0.02700
C2040       C  0.36520851  0.26422760  0.23357211    -0.07200
C2041       C  0.35139285  0.25857886  0.25750095     0.06400
C2042       C  0.36514091  0.25499355  0.28203375    -0.02200
Br2043     Br  0.34818854  0.24834880  0.31624205    -0.01900
H2044       H  0.40269367  0.25460233  0.30109095     0.10300
H2045       H  0.35486827  0.26650626  0.21452177     0.08300
Br2046     Br  0.40927363  0.27038864  0.19895068    -0.02300
C2047       C  0.61215825  0.24485677  0.27705844    -0.08900
C2048       C  0.59980470  0.26720506  0.26655019     0.07200
C2049       C  0.61418423  0.28575866  0.25160254    -0.02700
C2050       C  0.64080902  0.28158484  0.24711680    -0.07200
C2051       C  0.65339414  0.25885512  0.25717095     0.06400
C2052       C  0.63871614  0.24048665  0.27266629    -0.02200
Br2053     Br  0.65295270  0.20902513  0.28875870    -0.01900
H2054       H  0.60082968  0.23029179  0.28811946     0.10300
H2055       H  0.65152699  0.29593152  0.23517044     0.08300
Br2056     Br  0.59772477  0.31578944  0.23509356    -0.02300
C2057       C  0.50764171  0.14227216  0.23658241    -0.08900
C2058       C  0.50519074  0.15601451  0.26152471     0.07200
C2059       C  0.50344662  0.13999220  0.28521643    -0.02700
C2060       C  0.50337404  0.11187907  0.28362021    -0.07200
C2061       C  0.50533414  0.09820950  0.25867100     0.06400
C2062       C  0.50761494  0.11414489  0.23502961    -0.02200
Br2063     Br  0.51056662  0.09825671  0.19984345    -0.01900
H2064       H  0.50926065  0.15350359  0.21793121     0.10300
H2065       H  0.50208385  0.10054555  0.30223065     0.08300
Br2066     Br  0.50332598  0.15542363  0.32076470    -0.02300
C2067       C  0.51186361  0.27402887  0.59625167    -0.08900
C2068       C  0.49569189  0.25717809  0.61145905     0.07200
C2069       C  0.48021616  0.23906702  0.59680092    -0.02700
C2070       C  0.48037424  0.23864797  0.56798886    -0.07200
C2071       C  0.49580643  0.25615644  0.55221900     0.06400
C2072       C  0.51273652  0.27327445  0.56744485    -0.02200
Br2073     Br  0.53924611  0.29549072  0.55149837    -0.01900
H2074       H  0.52468032  0.28745285  0.60697330     0.10300
H2075       H  0.46876358  0.22372844  0.55807449     0.08300
Br2076     Br  0.45823647  0.21436078  0.61548164    -0.02300
C2077       C  0.50361322  0.36374671  0.76555362    -0.08900
C2078       C  0.49512397  0.35692260  0.73916125     0.07200
C2079       C  0.48547733  0.37728846  0.72220846    -0.02700
C2080       C  0.48470639  0.40337385  0.73177911    -0.07200
C2081       C  0.49327998  0.40981772  0.75805232     0.06400
C2082       C  0.50269703  0.38974802  0.77496182    -0.02200
Br2083     Br  0.51319709  0.39689260  0.81157154    -0.01900
H2084       H  0.51068364  0.34870881  0.77934274     0.10300
H2085       H  0.47763634  0.41887648  0.71854286     0.08300
Br2086     Br  0.47372728  0.37143188  0.68570469    -0.02300
C2087       C  0.60684677  0.26229589  0.74633867    -0.08900
C2088       C  0.59527083  0.25394732  0.72191956     0.07200
C2089       C  0.61147522  0.24484890  0.70059969    -0.02700
C2090       C  0.63845099  0.24311520  0.70465513    -0.07200
C2091       C  0.64963905  0.25069092  0.72945281     0.06400
C2092       C  0.63368060  0.26107227  0.75012135    -0.02200
Br2093     Br  0.64732159  0.27594994  0.78314458    -0.01900
H2094       H  0.59499720  0.26987684  0.76284396     0.10300
H2095       H  0.65076116  0.23590837  0.68832335     0.08300
Br2096     Br  0.59863458  0.23601650  0.66510420    -0.02300
C2097       C  0.38526789  0.23236855  0.71245906    -0.08900
C2098       C  0.39757005  0.25693161  0.71506178     0.07200
C2099       C  0.38243144  0.27991550  0.71804700    -0.02700
C2100       C  0.35532029  0.27781057  0.71989066    -0.07200
C2101       C  0.34311544  0.25303088  0.71914111     0.06400
C2102       C  0.35817658  0.23025906  0.71426958    -0.02200
Br2103     Br  0.34290382  0.19596172  0.70964364    -0.01900
H2104       H  0.39685786  0.21467821  0.70961528     0.10300
H2105       H  0.34391689  0.29543848  0.72373905     0.08300
Br2106     Br  0.39778831  0.31410816  0.72316580    -0.02300
C2107       C  0.48879472  0.14361074  0.75349625    -0.08900
C2108       C  0.49763255  0.15394909  0.72849380     0.07200
C2109       C  0.50801106  0.13625207  0.70898547    -0.02700
C2110       C  0.50907730  0.10916697  0.71470909    -0.07200
C2111       C  0.49994322  0.09911991  0.73951724     0.06400
C2112       C  0.48995905  0.11660540  0.75910311    -0.02200
Br2113     Br  0.47768286  0.10445017  0.79380296    -0.01900
H2114       H  0.48107159  0.15660302  0.76902583     0.10300
H2115       H  0.51660353  0.09572996  0.69947202     0.08300
Br2116     Br  0.51985008  0.14710519  0.67365141    -0.02300
C2117       C  0.26956618  0.51162541  0.61562943    -0.08900
C2118       C  0.25588283  0.49353485  0.63209267     0.07200
C2119       C  0.23845457  0.47619541  0.61824707    -0.02700
C2120       C  0.23530614  0.47732069  0.58956088    -0.07200
C2121       C  0.24947913  0.49500426  0.57287307     0.06400
C2122       C  0.26650099  0.51278592  0.58700879    -0.02200
Br2123     Br  0.28656812  0.54005644  0.56938532    -0.01900
H2124       H  0.28265328  0.52558395  0.62519647     0.10300
H2125       H  0.22106155  0.46436258  0.58044913     0.08300
Br2126     Br  0.21850164  0.44958826  0.63678273    -0.02300
C2127       C  0.39120371  0.51766896  0.72873702    -0.08900
C2128       C  0.37526583  0.50160388  0.74572477     0.07200
C2129       C  0.39003636  0.48730624  0.76569512    -0.02700
C2130       C  0.41820839  0.48825129  0.76720436    -0.07200
C2131       C  0.43446585  0.50352960  0.74962962     0.06400
C2132       C  0.41939911  0.51930285  0.73078321    -0.02200
Br2133     Br  0.43498385  0.54521962  0.70729620    -0.01900
H2134       H  0.38152576  0.52981938  0.71371503     0.10300
H2135       H  0.42741549  0.47708633  0.78326055     0.08300
Br2136     Br  0.37318445  0.46623297  0.79297655    -0.02300
C2137       C  0.27760148  0.38780032  0.75465322    -0.08900
C2138       C  0.25536656  0.40379712  0.75448387     0.07200
C2139       C  0.23049600  0.39266586  0.75946466    -0.02700
C2140       C  0.22820601  0.36547995  0.76312740    -0.07200
C2141       C  0.25033214  0.34938945  0.76137558     0.06400
C2142       C  0.27526487  0.36070284  0.75779567    -0.02200
Br2143     Br  0.30676590  0.34002730  0.75632924    -0.01900
H2144       H  0.29678139  0.39629768  0.75131042     0.10300
H2145       H  0.20902915  0.35678068  0.76586326     0.08300
Br2146     Br  0.19913937  0.41344335  0.76168645    -0.02300
C2147       C  0.27825376  0.61182111  0.71781314    -0.08900
C2148       C  0.25641166  0.59708689  0.72606439     0.07200
C2149       C  0.23182776  0.60976189  0.72817007    -0.02700
C2150       C  0.23010901  0.63704058  0.72460413    -0.07200
C2151       C  0.25249465  0.65194645  0.71902928     0.06400
C2152       C  0.27645972  0.63905692  0.71430959    -0.02200
Br2153     Br  0.30744665  0.65797658  0.70387072    -0.01900
H2154       H  0.29706317  0.60233169  0.71516092     0.10300
H2155       H  0.21155621  0.64682044  0.72805869     0.08300
Br2156     Br  0.19982366  0.59126768  0.73574363    -0.02300
C2157       C  0.51924000  0.73250037  0.59787245    -0.08900
C2158       C  0.50233987  0.74944141  0.61230453     0.07200
C2159       C  0.48604526  0.76608426  0.59627498    -0.02700
C2160       C  0.48691516  0.76528998  0.56745099    -0.07200
C2161       C  0.50300443  0.74750111  0.55292141     0.06400
C2162       C  0.51984655  0.73139841  0.56911212    -0.02200
Br2163     Br  0.54440718  0.70667331  0.55394198    -0.01900
H2164       H  0.53230346  0.71972528  0.60910388     0.10300
H2165       H  0.47480132  0.77906545  0.55644149     0.08300
Br2166     Br  0.46107157  0.78998327  0.61192115    -0.02300
C2167       C  0.48074542  0.64025962  0.75346373    -0.08900
C2168       C  0.50020858  0.64857731  0.73493474     0.07200
C2169       C  0.51765764  0.62940251  0.72461146    -0.02700
C2170       C  0.51537568  0.60303464  0.73305471    -0.07200
C2171       C  0.49642765  0.59515053  0.75227870     0.06400
C2172       C  0.47899655  0.61421383  0.76241198    -0.02200
Br2173     Br  0.45381085  0.60672297  0.79035003    -0.01900
H2174       H  0.46699442  0.65428509  0.76192674     0.10300
H2175       H  0.52870864  0.58861551  0.72461623     0.08300
Br2176     Br  0.54577061  0.63757449  0.70011373    -0.02300
C2177       C  0.39162963  0.77491927  0.72581616    -0.08900
C2178       C  0.40417230  0.75120749  0.71944236     0.07200
C2179       C  0.38952279  0.72809899  0.71556520    -0.02700
C2180       C  0.36257776  0.72864239  0.71982950    -0.07200
C2181       C  0.35007447  0.75213552  0.72755652     0.06400
C2182       C  0.36470447  0.77559889  0.72993131    -0.02200
Br2183     Br  0.34967312  0.80852536  0.74137581    -0.01900
H2184       H  0.40300440  0.79269158  0.72896554     0.10300
H2185       H  0.35138386  0.71066767  0.71728271     0.08300
Br2186     Br  0.40548301  0.69575572  0.70385089    -0.02300
C2187       C  0.61704686  0.73397086  0.70729135    -0.08900
C2188       C  0.60182295  0.75551922  0.71575852     0.07200
C2189       C  0.61450321  0.77925409  0.72327707    -0.02700
C2190       C  0.64172142  0.78003756  0.72496389    -0.07200
C2191       C  0.65660699  0.75757040  0.71936604     0.06400
C2192       C  0.64427967  0.73480296  0.70920429    -0.02200
Br2193     Br  0.66382190  0.70424085  0.69830402    -0.01900
H2194       H  0.60776198  0.71589922  0.70062709     0.10300
H2195       H  0.65117574  0.79777288  0.73232788     0.08300
Br2196     Br  0.59612301  0.81128197  0.73185852    -0.02300
C2197       C  0.50515269  0.86153758  0.75668808    -0.08900
C2198       C  0.50056774  0.85061083  0.73084085     0.07200
C2199       C  0.49507768  0.86776024  0.70885497    -0.02700
C2200       C  0.49473138  0.89505494  0.71304402    -0.07200
C2201       C  0.49972795  0.90569913  0.73875067     0.06400
C2202       C  0.50466638  0.88879018  0.76074327    -0.02200
Br2203     Br  0.51065745  0.90223902  0.79661844    -0.01900
H2204       H  0.50902004  0.84884172  0.77393103     0.10300
H2205       H  0.49090520  0.90811612  0.69607657     0.08300
Br2206     Br  0.48930632  0.85570702  0.67233240    -0.02300
C2207       C  0.52357492  0.23820913  0.11158518    -0.08900
C2208       C  0.51043695  0.25655475  0.09510309     0.07200
C2209       C  0.49728320  0.27752954  0.10829743    -0.02700
C2210       C  0.49694316  0.27945803  0.13695352    -0.07200
C2211       C  0.50967957  0.26084261  0.15368848     0.06400
C2212       C  0.52344261  0.24009039  0.14024411    -0.02200
Br2213     Br  0.54219191  0.21280240  0.15909744    -0.01900
H2214       H  0.53372904  0.22189524  0.10204266     0.10300
H2215       H  0.48649256  0.29574680  0.14616521     0.08300
Br2216     Br  0.47983268  0.30456444  0.08796174    -0.02300
C2217       C  0.48569392  0.22777107  0.87504014    -0.08900
C2218       C  0.50042720  0.24630302  0.88982996     0.07200
C2219       C  0.51317025  0.26642749  0.87499638    -0.02700
C2220       C  0.51126227  0.26763243  0.84640055    -0.07200
C2221       C  0.49644608  0.24919524  0.83140766     0.06400
C2222       C  0.48352502  0.22903247  0.84641083    -0.02200
Br2223     Br  0.46325359  0.20183521  0.82935061    -0.01900
H2224       H  0.47571348  0.21213592  0.88590829     0.10300
H2225       H  0.52127130  0.28345004  0.83585525     0.08300
Br2226     Br  0.53257832  0.29357364  0.89308388    -0.02300
C2227       C  0.27843102  0.26493085  0.86002633    -0.08900
C2228       C  0.27433448  0.24167855  0.84550484     0.07200
C2229       C  0.27208016  0.21731109  0.85886660    -0.02700
C2230       C  0.27085218  0.21700091  0.88703135    -0.07200
C2231       C  0.27189168  0.24075713  0.90149376     0.06400
C2232       C  0.27754163  0.26459838  0.88811038    -0.02200
Br2233     Br  0.28377744  0.29713703  0.90702019    -0.01900
H2234       H  0.28080649  0.28355286  0.84945431     0.10300
H2235       H  0.26723615  0.19852292  0.89747424     0.08300
Br2236     Br  0.26697021  0.18473184  0.83964011    -0.02300
C2237       C  0.26264686  0.28820374  0.10997359    -0.08900
C2238       C  0.24255333  0.27262853  0.09864996     0.07200
C2239       C  0.21988417  0.26771281  0.11411290    -0.02700
C2240       C  0.21997778  0.27397410  0.14157338    -0.07200
C2241       C  0.24263418  0.28409451  0.15382258     0.06400
C2242       C  0.26274808  0.29415952  0.13751031    -0.02200
Br2243     Br  0.29252528  0.31241425  0.15198200    -0.01900
H2244       H  0.27946653  0.29403817  0.09799657     0.10300
H2245       H  0.20363587  0.26764774  0.15404498     0.08300
Br2246     Br  0.18896009  0.25119561  0.10000377    -0.02300
C2247       C  0.37034446  0.22330753  0.99318549    -0.08900
C2248       C  0.35701298  0.24471053  0.00501258     0.07200
C2249       C  0.37148645  0.26695865  0.01374807    -0.02700
C2250       C  0.39855448  0.26725970  0.01044877    -0.07200
C2251       C  0.41158104  0.24588300  0.99860329     0.06400
C2252       C  0.39738341  0.22374420  0.98997806    -0.02200
Br2253     Br  0.41411681  0.19355121  0.97410397    -0.01900
H2254       H  0.35972041  0.20608758  0.98629847     0.10300
H2255       H  0.40960061  0.28430785  0.01709706     0.08300
Br2256     Br  0.35607572  0.29824961  0.02902523    -0.02300
C2257       C  0.27442032  0.47591506  0.12740473    -0.08900
C2258       C  0.25540137  0.49036431  0.11306315     0.07200
C2259       C  0.23630410  0.50393792  0.12840063    -0.02700
C2260       C  0.23646173  0.50289825  0.15703024    -0.07200
C2261       C  0.25544692  0.48845264  0.17162823     0.06400
C2262       C  0.27472752  0.47493227  0.15613114    -0.02200
Br2263     Br  0.30300443  0.45585935  0.17251792    -0.01900
H2264       H  0.28947970  0.46560799  0.11611983     0.10300
H2265       H  0.22137591  0.51351967  0.16794646     0.08300
Br2266     Br  0.20910577  0.52390388  0.11117180    -0.02300
C2267       C  0.28602891  0.50035096  0.89374042    -0.08900
C2268       C  0.26202642  0.49963048  0.90764708     0.07200
C2269       C  0.23885969  0.50020759  0.89216187    -0.02700
C2270       C  0.23991515  0.50237952  0.86358511    -0.07200
C2271       C  0.26394370  0.50300221  0.84948402     0.06400
C2272       C  0.28718179  0.50155998  0.86511955    -0.02200
Br2273     Br  0.32126767  0.50188639  0.84877048    -0.01900
H2274       H  0.30403843  0.49976774  0.90525260     0.10300
H2275       H  0.22178638  0.50273633  0.85226865     0.08300
Br2276     Br  0.20533914  0.49701152  0.90935480    -0.02300
C2277       C  0.23410083  0.38748716  0.99849086    -0.08900
C2278       C  0.25731822  0.40040333  0.00523841     0.07200
C2279       C  0.28054891  0.38608195  0.00832460    -0.02700
C2280       C  0.28043071  0.35896992  0.00407883    -0.07200
C2281       C  0.25719236  0.34568718  0.99729604     0.06400
C2282       C  0.23369977  0.36022293  0.99488554    -0.02200
Br2283     Br  0.20008545  0.34439215  0.98893730    -0.01900
H2284       H  0.21619071  0.39870195  0.99631520     0.10300
H2285       H  0.29859321  0.34821684  0.00641897     0.08300
Br2286     Br  0.31277145  0.40291622  0.01812246    -0.02300
C2287       C  0.22714104  0.74277478  0.10945657    -0.08900
C2288       C  0.25089061  0.74161946  0.09549686     0.07200
C2289       C  0.27447350  0.73689771  0.10924821    -0.02700
C2290       C  0.27398353  0.73431682  0.13720719    -0.07200
C2291       C  0.25036156  0.73677455  0.15130261     0.06400
C2292       C  0.22666010  0.74052274  0.13737743    -0.02200
Br2293     Br  0.19314586  0.74265360  0.15508075    -0.01900
H2294       H  0.20897688  0.74594565  0.09862487     0.10300
H2295       H  0.29220181  0.73151057  0.14803535     0.08300
Br2296     Br  0.30759792  0.73316288  0.09111548    -0.02300
C2297       C  0.28031411  0.72262531  0.88609228    -0.08900
C2298       C  0.25573260  0.72240748  0.89863148     0.07200
C2299       C  0.23334670  0.71536197  0.88406526    -0.02700
C2300       C  0.23540175  0.71160292  0.85625896    -0.07200
C2301       C  0.25938678  0.71570117  0.84303403     0.06400
C2302       C  0.28231899  0.71964913  0.85815201    -0.02200
Br2303     Br  0.31579494  0.72607703  0.84166426    -0.01900
H2304       H  0.29766057  0.72736321  0.89772128     0.10300
H2305       H  0.21778146  0.70820884  0.84457637     0.08300
Br2306     Br  0.19962901  0.71212757  0.90093152    -0.02300
C2307       C  0.23581442  0.63009493  0.01319827    -0.08900
C2308       C  0.25901322  0.64488320  0.01268481     0.07200
C2309       C  0.28336055  0.63176172  0.01481063    -0.02700
C2310       C  0.28397029  0.60428114  0.01586942    -0.07200
C2311       C  0.26074860  0.58976778  0.01519368     0.06400
C2312       C  0.23654622  0.60273514  0.01430136    -0.02200
Br2313     Br  0.20412184  0.58375911  0.01262828    -0.01900
H2314       H  0.21697951  0.63973048  0.01153991     0.10300
H2315       H  0.30258802  0.59412236  0.01676180     0.08300
Br2316     Br  0.31639483  0.64973477  0.01683468    -0.02300
C2317       C  0.50200394  0.75620054  0.11362731    -0.08900
C2318       C  0.50202844  0.73303091  0.09794322     0.07200
C2319       C  0.50123464  0.70860122  0.11176218    -0.02700
C2320       C  0.50049243  0.70767409  0.14043567    -0.07200
C2321       C  0.50097035  0.73085191  0.15623311     0.06400
C2322       C  0.50152169  0.75534280  0.14228794    -0.02200
Br2323     Br  0.49993641  0.78842982  0.16116178    -0.01900
H2324       H  0.50223009  0.77516181  0.10346561     0.10300
H2325       H  0.50007670  0.68864224  0.15044811     0.08300
Br2326     Br  0.50137964  0.67592819  0.09221601    -0.02300
C2327       C  0.51387488  0.76868309  0.84951431    -0.08900
C2328       C  0.50219093  0.74819711  0.83430372     0.07200
C2329       C  0.49027151  0.72738713  0.84930207    -0.02700
C2330       C  0.48984954  0.72770573  0.87804849    -0.07200
C2331       C  0.50147494  0.74817585  0.89302922     0.06400
C2332       C  0.51358554  0.76877451  0.87830271    -0.02200
Br2333     Br  0.52969031  0.79771488  0.89691184    -0.01900
H2334       H  0.52315663  0.78494470  0.83897309     0.10300
H2335       H  0.48082005  0.71145208  0.88885370     0.08300
Br2336     Br  0.47587977  0.69668325  0.83209289    -0.02300
C2337       C  0.39506387  0.77442713  0.00015593    -0.08900
C2338       C  0.40810555  0.75038111  0.99629090     0.07200
C2339       C  0.39369692  0.72733525  0.99144011    -0.02700
C2340       C  0.36654316  0.72837350  0.99122017    -0.07200
C2341       C  0.35315850  0.75228422  0.99535689     0.06400
C2342       C  0.36771836  0.77563729  0.99939975    -0.02200
Br2343     Br  0.35175894  0.80981037  0.00190986    -0.01900
H2344       H  0.40623973  0.79232280  0.00324786     0.10300
H2345       H  0.35585153  0.71018748  0.98805897     0.08300
Br2346     Br  0.41035738  0.69397061  0.98501497    -0.02300
C2347       C  0.77088454  0.76232016  0.11443510    -0.08900
C2348       C  0.74729763  0.76193817  0.10017323     0.07200
C2349       C  0.72327218  0.76050866  0.11411223    -0.02700
C2350       C  0.72334622  0.75676207  0.14199419    -0.07200
C2351       C  0.74705127  0.75462574  0.15580802     0.06400
C2352       C  0.77092986  0.75865319  0.14227715    -0.02200
Br2353     Br  0.80395838  0.75984924  0.16075407    -0.01900
H2354       H  0.78938267  0.76395852  0.10378397     0.10300
H2355       H  0.70496276  0.75489242  0.15281805     0.08300
Br2356     Br  0.69003359  0.76370627  0.09627529    -0.02300
C2357       C  0.72013879  0.73141867  0.89157035    -0.08900
C2358       C  0.74462892  0.72601413  0.90311077     0.07200
C2359       C  0.76530217  0.71673258  0.88689183    -0.02700
C2360       C  0.76183343  0.71562431  0.85904788    -0.07200
C2361       C  0.73859766  0.72479946  0.84729617     0.06400
C2362       C  0.71707591  0.73139940  0.86361317    -0.02200
Br2363     Br  0.68504749  0.74532715  0.84921728    -0.01900
H2364       H  0.70399684  0.73796281  0.90418398     0.10300
H2365       H  0.77838055  0.71043731  0.84631793     0.08300
Br2366     Br  0.79993063  0.71002933  0.90043820    -0.02300
C2367       C  0.63609316  0.76193509  0.98879980    -0.08900
C2368       C  0.65099912  0.73946999  0.99492940     0.07200
C2369       C  0.63820633  0.71511493  0.99940774    -0.02700
C2370       C  0.61091647  0.71398506  0.99892113    -0.07200
C2371       C  0.59619599  0.73669490  0.99366691     0.06400
C2372       C  0.60889068  0.76069437  0.98819295    -0.02200
Br2373     Br  0.58972089  0.79242526  0.98076864    -0.01900
H2374       H  0.64558948  0.78071815  0.98516910     0.10300
H2375       H  0.60110558  0.69539531  0.00269445     0.08300
Br2376     Br  0.65674809  0.68255067  0.00480016    -0.02300
C2377       C  0.72480410  0.26926713  0.10726683    -0.08900
C2378       C  0.74939138  0.26903945  0.09457401     0.07200
C2379       C  0.77187967  0.27661840  0.10909145    -0.02700
C2380       C  0.76964255  0.28241917  0.13642937    -0.07200
C2381       C  0.74561120  0.27983448  0.14966180     0.06400
C2382       C  0.72278009  0.27466580  0.13489865    -0.02200
Br2383     Br  0.68928477  0.27139194  0.15221905    -0.01900
H2384       H  0.70736800  0.26419016  0.09595816     0.10300
H2385       H  0.78726334  0.28590792  0.14810385     0.08300
Br2386     Br  0.80675885  0.27536766  0.09437484    -0.02300
C2387       C  0.77459877  0.26823762  0.88482579    -0.08900
C2388       C  0.76739837  0.24439820  0.89702956     0.07200
C2389       C  0.75606909  0.22409008  0.88184920    -0.02700
C2390       C  0.75100015  0.22833383  0.85461321    -0.07200
C2391       C  0.75719761  0.25256169  0.84246822     0.06400
C2392       C  0.76962770  0.27251509  0.85750916    -0.02200
Br2393     Br  0.77761317  0.30678181  0.84291084    -0.01900
H2394       H  0.78257316  0.28411759  0.89700137     0.10300
H2395       H  0.74175724  0.21282873  0.84300657     0.08300
Br2396     Br  0.74437153  0.19165547  0.89806442    -0.02300
C2397       C  0.61278671  0.25676894  0.97170808    -0.08900
C2398       C  0.59956807  0.23762734  0.98696726     0.07200
C2399       C  0.61401689  0.21807391  0.00057296    -0.02700
C2400       C  0.64133754  0.21909977  0.00040731    -0.07200
C2401       C  0.65477825  0.23899390  0.98611994     0.06400
C2402       C  0.64007287  0.25745201  0.97077997    -0.02200
Br2403     Br  0.65527479  0.28506741  0.94910795    -0.01900
H2404       H  0.60172037  0.27163484  0.96084829     0.10300
H2405       H  0.65210717  0.20431104  0.01166935     0.08300
Br2406     Br  0.59723749  0.18958198  0.01943468    -0.02300
C2407       C  0.71943632  0.49474875  0.12584474    -0.08900
C2408       C  0.74196117  0.48949080  0.11037167     0.07200
C2409       C  0.76549427  0.48456699  0.12447707    -0.02700
C2410       C  0.76604618  0.48440688  0.15320222    -0.07200
C2411       C  0.74359349  0.49017785  0.16880105     0.06400
C2412       C  0.72008688  0.49546615  0.15449664    -0.02200
Br2413     Br  0.68783922  0.50336265  0.17269053    -0.01900
H2414       H  0.70123493  0.49890894  0.11548467     0.10300
H2415       H  0.78443487  0.48072639  0.16338252     0.08300
Br2416     Br  0.79771417  0.47949794  0.10523520    -0.02300
C2417       C  0.77384469  0.60253209  0.01400513    -0.08900
C2418       C  0.74893219  0.59104998  0.01440651     0.07200
C2419       C  0.72670717  0.60706009  0.01729444    -0.02700
C2420       C  0.72952376  0.63433744  0.01884402    -0.07200
C2421       C  0.75431737  0.64614293  0.01715265     0.06400
C2422       C  0.77671923  0.62995208  0.01526048    -0.02200
Br2423     Br  0.81157007  0.64397691  0.01514293    -0.01900
H2424       H  0.79101741  0.59011278  0.01243215     0.10300
H2425       H  0.71209240  0.64641797  0.02015709     0.08300
Br2426     Br  0.69211051  0.59246936  0.01851366    -0.02300
C2427       C  0.76552391  0.36415720  0.99016760    -0.08900
C2428       C  0.74400059  0.34712200  0.99216161     0.07200
C2429       C  0.71893241  0.35761572  0.99758757    -0.02700
C2430       C  0.71593805  0.38477543  0.00109596    -0.07200
C2431       C  0.73754836  0.40158494  0.99923586     0.06400
C2432       C  0.76242546  0.39124287  0.99349800    -0.02200
Br2433     Br  0.79265467  0.41344596  0.99029037    -0.01900
H2434       H  0.78486378  0.35634987  0.98612273     0.10300
H2435       H  0.69677663  0.39284191  0.00548442     0.08300
Br2436     Br  0.68846714  0.33597518  0.00255845    -0.02300
C2437       C  0.75195492  0.50207621  0.61630494    -0.08900
C2438       C  0.72775083  0.49757307  0.62949592     0.07200
C2439       C  0.70631245  0.49159474  0.61224491    -0.02700
C2440       C  0.70915150  0.49146251  0.58352125    -0.07200
C2441       C  0.73283688  0.49807983  0.57021599     0.06400
C2442       C  0.75477703  0.50164569  0.58758603    -0.02200
Br2443     Br  0.78980011  0.50423935  0.57371934    -0.01900
H2444       H  0.76923182  0.50543711  0.62848796     0.10300
H2445       H  0.69259436  0.48517560  0.57168845     0.08300
Br2446     Br  0.67210725  0.48381083  0.62614307    -0.02300
C2447       C  0.57089498  0.51835900  0.76828091    -0.08900
C2448       C  0.55472770  0.50009970  0.75403289     0.07200
C2449       C  0.56975722  0.48192932  0.73755786    -0.02700
C2450       C  0.59776641  0.48373485  0.73452184    -0.07200
C2451       C  0.61352255  0.50285324  0.74774302     0.06400
C2452       C  0.59891050  0.52012309  0.76514572    -0.02200
Br2453     Br  0.61579146  0.54754089  0.78539587    -0.01900
H2454       H  0.56184468  0.53156880  0.78268368     0.10300
H2455       H  0.60743588  0.46951854  0.72152617     0.08300
Br2456     Br  0.55420286  0.45318860  0.71782443    -0.02300
C2457       C  0.74771058  0.61100039  0.71687319    -0.08900
C2458       C  0.73754911  0.59805747  0.73988332     0.07200
C2459       C  0.73462574  0.61217082  0.76437120    -0.02700
C2460       C  0.73936455  0.63917909  0.76469547    -0.07200
C2461       C  0.74832408  0.65229141  0.74138594     0.06400
C2462       C  0.75353005  0.63789471  0.71759040    -0.02200
Br2463     Br  0.76740099  0.65401964  0.68531629    -0.01900
H2464       H  0.75098372  0.60020535  0.69818291     0.10300
H2465       H  0.73631771  0.65002067  0.78341619     0.08300
Br2466     Br  0.72670487  0.59560131  0.79858079    -0.02300
C2467       C  0.72045633  0.38973984  0.71664241    -0.08900
C2468       C  0.72111706  0.40315515  0.74146871     0.07200
C2469       C  0.72473985  0.38897765  0.76577748    -0.02700
C2470       C  0.73018596  0.36207663  0.76467387    -0.07200
C2471       C  0.73119938  0.34891024  0.73965681     0.06400
C2472       C  0.72533543  0.36273037  0.71552131    -0.02200
Br2473     Br  0.72592818  0.34661219  0.68018564    -0.01900
H2474       H  0.71752896  0.40053528  0.69788069     0.10300
H2475       H  0.73354151  0.35137969  0.78341905     0.08300
Br2476     Br  0.72135467  0.40517752  0.80089300    -0.02300
C2477       C  0.70524092  0.50288448  0.86278963    -0.08900
C2478       C  0.72825567  0.50408084  0.84711626     0.07200
C2479       C  0.75242883  0.50519854  0.86108346    -0.02700
C2480       C  0.75319227  0.50488244  0.88972883    -0.07200
C2481       C  0.73020065  0.50329306  0.90536527     0.06400
C2482       C  0.70607164  0.50214064  0.89144459    -0.02200
Br2483     Br  0.67368814  0.49872951  0.91077984    -0.01900
H2484       H  0.68648604  0.50175789  0.85269186     0.10300
H2485       H  0.77192680  0.50567064  0.89990225     0.08300
Br2486     Br  0.78510703  0.50836260  0.84215351    -0.02300
C2487       C  0.10948178  0.51235432  0.76865309    -0.08900
C2488       C  0.09441741  0.49816271  0.74948633     0.07200
C2489       C  0.10908713  0.48501191  0.72895216    -0.02700
C2490       C  0.13708096  0.48586106  0.72820329    -0.07200
C2491       C  0.15229082  0.50012850  0.74735175     0.06400
C2492       C  0.13743263  0.51356938  0.76776443    -0.02200
Br2493     Br  0.15372373  0.53433912  0.79553368    -0.01900
H2494       H  0.09931573  0.52288918  0.78463028     0.10300
H2495       H  0.14701953  0.47543768  0.71200701     0.08300
Br2496     Br  0.09164217  0.46672143  0.70015553    -0.02300
C2497       C  0.87775473  0.48730482  0.76906853    -0.08900
C2498       C  0.89380051  0.49972463  0.74935243     0.07200
C2499       C  0.88000440  0.51172332  0.72745652    -0.02700
C2500       C  0.85202164  0.51089594  0.72555300    -0.07200
C2501       C  0.83586602  0.49816952  0.74510381     0.06400
C2502       C  0.84980259  0.48643192  0.76726054    -0.02200
Br2503     Br  0.83218172  0.46892338  0.79660190    -0.01900
H2504       H  0.88712249  0.47802115  0.78631111     0.10300
H2505       H  0.84284436  0.52029690  0.70827662     0.08300
Br2506     Br  0.89867673  0.52893441  0.69868505    -0.02300
C2507       C  0.86476469  0.75886615  0.73742739    -0.08900
C2508       C  0.85091015  0.75778779  0.76198078     0.07200
C2509       C  0.86403524  0.76224784  0.78672256    -0.02700
C2510       C  0.89078828  0.76735915  0.78647381    -0.07200
C2511       C  0.90469256  0.76776306  0.76194618     0.06400
C2512       C  0.89145496  0.76388580  0.73718494    -0.02200
Br2513     Br  0.90847747  0.76608428  0.70235856    -0.01900
H2514       H  0.85471036  0.75617533  0.71826658     0.10300
H2515       H  0.90096617  0.76983793  0.80558744     0.08300
Br2516     Br  0.84713060  0.75949416  0.82151425    -0.02300
C2517       C  0.14145860  0.77869752  0.75880031    -0.08900
C2518       C  0.15164541  0.75307336  0.75773412     0.07200
C2519       C  0.13484752  0.73122255  0.75895493    -0.02700
C2520       C  0.10798762  0.73532139  0.76100307    -0.07200
C2521       C  0.09765366  0.76100947  0.76161889     0.06400
C2522       C  0.11461890  0.78287013  0.76055409    -0.02200
Br2523     Br  0.10260835  0.81872532  0.76285174    -0.01900
H2524       H  0.15447430  0.79555424  0.75805886     0.10300
H2525       H  0.09511170  0.71836588  0.76187036     0.08300
Br2526     Br  0.14773448  0.69564894  0.75940892    -0.02300
C2527       C  0.98408852  0.61483622  0.73592188    -0.08900
C2528       C  0.99595564  0.59897225  0.75605174     0.07200
C2529       C  0.00870419  0.61298104  0.77728043    -0.02700
C2530       C  0.00927061  0.64119858  0.77807681    -0.07200
C2531       C  0.99731335  0.65725862  0.75798483     0.06400
C2532       C  0.98466266  0.64304429  0.73657604    -0.02200
Br2533     Br  0.96787622  0.66050990  0.70674624    -0.01900
H2534       H  0.97432616  0.60512943  0.71918497     0.10300
H2535       H  0.01917135  0.65064326  0.79487354     0.08300
Br2536     Br  0.02515288  0.59432580  0.80650416    -0.02300
C2537       C  0.11201850  0.77885604  0.49831529    -0.08900
C2538       C  0.09709396  0.75626847  0.49310575     0.07200
C2539       C  0.10965410  0.73166233  0.49060233    -0.02700
C2540       C  0.13677547  0.72990933  0.49400275    -0.07200
C2541       C  0.15171633  0.75253185  0.49935473     0.06400
C2542       C  0.13912854  0.77724259  0.50120283    -0.02200
Br2543     Br  0.15768669  0.80922034  0.50919921    -0.01900
H2544       H  0.10241983  0.79779088  0.50055326     0.10300
H2545       H  0.14628040  0.71090005  0.49203724     0.08300
Br2546     Br  0.09052401  0.70006244  0.48287735    -0.02300
C2547       C  0.89141486  0.78680526  0.48518243    -0.08900
C2548       C  0.90814618  0.76959535  0.49911665     0.07200
C2549       C  0.89740744  0.74789107  0.51314636    -0.02700
C2550       C  0.87031587  0.74424614  0.51394167    -0.07200
C2551       C  0.85345461  0.76165389  0.50041006     0.06400
C2552       C  0.86435216  0.78273888  0.48522582    -0.02200
Br2553     Br  0.84382747  0.80513126  0.46200072    -0.01900
H2554       H  0.89956599  0.80297172  0.47350412     0.10300
H2555       H  0.86241226  0.72771367  0.52523882     0.08300
Br2556     Br  0.91904805  0.72192063  0.53038607    -0.02300
C2557       C  0.01926581  0.78872924  0.64100044    -0.08900
C2558       C  0.00336440  0.77027782  0.65490261     0.07200
C2559       C  0.98847189  0.75255345  0.63866809    -0.02700
C2560       C  0.98941212  0.75396882  0.61011062    -0.07200
C2561       C  0.00498551  0.77254723  0.59647955     0.06400
C2562       C  0.02025025  0.78987838  0.61233443    -0.02200
Br2563     Br  0.04238172  0.81587291  0.59573696    -0.01900
H2564       H  0.03108269  0.80249760  0.65244830     0.10300
H2565       H  0.97778970  0.74029554  0.59830058     0.08300
Br2566     Br  0.96621399  0.72550194  0.65329069    -0.02300
C2567       C  0.14178887  0.77658311  0.22129853    -0.08900
C2568       C  0.15069731  0.75915771  0.24150515     0.07200
C2569       C  0.13235700  0.74652394  0.25847744    -0.02700
C2570       C  0.10587379  0.75095319  0.25442471    -0.07200
C2571       C  0.09673043  0.76777791  0.23367493     0.06400
C2572       C  0.11516396  0.78105650  0.21724083    -0.02200
Br2573     Br  0.10605610  0.80512985  0.18862946    -0.01900
H2574       H  0.15562970  0.78655666  0.20814378     0.10300
H2575       H  0.09234890  0.74089084  0.26784753     0.08300
Br2576     Br  0.14147170  0.72361874  0.28823744    -0.02300
C2577       C  0.85980786  0.78349889  0.22485012    -0.08900
C2578       C  0.84995047  0.75777872  0.22783510     0.07200
C2579       C  0.86681991  0.73601684  0.22441702    -0.02700
C2580       C  0.89322625  0.74037144  0.21956631    -0.07200
C2581       C  0.90337030  0.76601950  0.21870128     0.06400
C2582       C  0.88637759  0.78778057  0.22034839    -0.02200
Br2583     Br  0.89829885  0.82351681  0.21645180    -0.01900
H2584       H  0.84690811  0.80036588  0.22669842     0.10300
H2585       H  0.90622248  0.72351185  0.21847543     0.08300
Br2586     Br  0.85623129  0.69994881  0.22953056    -0.02300
C2587       C  0.98921223  0.79136716  0.37926488    -0.08900
C2588       C  0.99962831  0.76928106  0.39275767     0.07200
C2589       C  0.00720502  0.74738475  0.37695988    -0.02700
C2590       C  0.00527261  0.74821629  0.34844258    -0.07200
C2591       C  0.99536474  0.77051727  0.33463308     0.06400
C2592       C  0.98696512  0.79220005  0.35070167    -0.02200
Br2593     Br  0.97315144  0.82408619  0.33531289    -0.01900
H2594       H  0.98287513  0.80821788  0.39109712     0.10300
H2595       H  0.01146489  0.73106793  0.33699817     0.08300
Br2596     Br  0.01931619  0.71539928  0.39355747    -0.02300
C2597       C  0.10441025  0.50516298  0.28335649    -0.08900
C2598       C  0.09535160  0.49975595  0.25697495     0.07200
C2599       C  0.11367787  0.49293346  0.23675769    -0.02700
C2600       C  0.14035858  0.49142408  0.24307343    -0.07200
C2601       C  0.14948089  0.49641628  0.26952687     0.06400
C2602       C  0.13118171  0.50360682  0.28971317    -0.02200
Br2603     Br  0.14193527  0.51330255  0.32564396    -0.01900
H2604       H  0.09056835  0.51062491  0.29905849     0.10300
H2605       H  0.15409585  0.48616475  0.22719007     0.08300
Br2606     Br  0.10302419  0.48537694  0.20023946    -0.02300
C2607       C  0.89633757  0.50672456  0.28192350    -0.08900
C2608       C  0.90563873  0.49922561  0.25615501     0.07200
C2609       C  0.88731159  0.49136579  0.23645515    -0.02700
C2610       C  0.86054459  0.49052211  0.24281931    -0.07200
C2611       C  0.85094840  0.49773032  0.26872509     0.06400
C2612       C  0.86946176  0.50609878  0.28836414    -0.02200
Br2613     Br  0.85995131  0.51602180  0.32469084    -0.01900
H2614       H  0.91018838  0.51282379  0.29730142     0.10300
H2615       H  0.84711550  0.48431974  0.22709827     0.08300
Br2616     Br  0.89795105  0.48168889  0.20040739    -0.02300
C2617       C  0.00614915  0.61836178  0.26090220    -0.08900
C2618       C  0.00053483  0.60167597  0.23865561     0.07200
C2619       C  0.99521442  0.61475931  0.21371871    -0.02700
C2620       C  0.99488407  0.64294125  0.21158537    -0.07200
C2621       C  0.00048308  0.65980123  0.23382464     0.06400
C2622       C  0.00633552  0.64651960  0.25879044    -0.02200
Br2623     Br  0.01421893  0.66539642  0.29158190    -0.01900
H2624       H  0.01050935  0.60936823  0.28033453     0.10300
H2625       H  0.99069127  0.65170723  0.19201243     0.08300
Br2626     Br  0.98947140  0.59466063  0.18137105    -0.02300
C2627       C  0.13781065  0.21644914  0.76858428    -0.08900
C2628       C  0.14827858  0.24184269  0.77214435     0.07200
C2629       C  0.13138289  0.26331597  0.77662154    -0.02700
C2630       C  0.10441380  0.25924984  0.77594691    -0.07200
C2631       C  0.09404920  0.23404931  0.77110315     0.06400
C2632       C  0.11091053  0.21238009  0.76807073    -0.02200
Br2633     Br  0.09847669  0.17745656  0.76026159    -0.01900
H2634       H  0.15067275  0.19980469  0.76501572     0.10300
H2635       H  0.09143452  0.27597001  0.77851912     0.08300
Br2636     Br  0.14372970  0.29881745  0.78092635    -0.02300
C2637       C  0.86128634  0.23455074  0.73226971    -0.08900
C2638       C  0.84756493  0.24944248  0.75145866     0.07200
C2639       C  0.86075022  0.26032305  0.77377596    -0.02700
C2640       C  0.88724637  0.25490297  0.77733646    -0.07200
C2641       C  0.90106840  0.23926919  0.75851667     0.06400
C2642       C  0.88789486  0.22985155  0.73514474    -0.02200
Br2643     Br  0.90446878  0.21188350  0.70523136    -0.01900
H2644       H  0.85117132  0.22661975  0.71474858     0.10300
H2645       H  0.89698716  0.26289216  0.79502716     0.08300
Br2646     Br  0.84326779  0.28132028  0.80072088    -0.02300
C2647       C  0.98741279  0.35632042  0.78389283    -0.08900
C2648       C  0.99574407  0.34075691  0.76151369     0.07200
C2649       C  0.00247081  0.35522931  0.73757251    -0.02700
C2650       C  0.00156355  0.38337412  0.73677802    -0.07200
C2651       C  0.99359979  0.39879330  0.75921594     0.06400
C2652       C  0.98632803  0.38451249  0.78290884    -0.02200
Br2653     Br  0.97523642  0.40289824  0.81490854    -0.01900
H2654       H  0.98186127  0.34652746  0.80258916     0.10300
H2655       H  0.00697340  0.39337455  0.71814847     0.08300
Br2656     Br  0.01176745  0.33794712  0.70424848    -0.02300
C2657       C  0.85871364  0.26317824  0.48904879    -0.08900
C2658       C  0.84372301  0.24019319  0.48545657     0.07200
C2659       C  0.85679327  0.21560285  0.48338453    -0.02700
C2660       C  0.88401616  0.21444089  0.48597082    -0.07200
C2661       C  0.89867780  0.23736672  0.49031107     0.06400
C2662       C  0.88591233  0.26190390  0.49140505    -0.02200
Br2663     Br  0.90502717  0.29415681  0.49577666    -0.01900
H2664       H  0.84924060  0.28223061  0.49064620     0.10300
H2665       H  0.89387819  0.19559173  0.48429826     0.08300
Br2666     Br  0.83911906  0.18299584  0.47567527    -0.02300
C2667       C  0.10078957  0.26933002  0.49210623    -0.08900
C2668       C  0.08844183  0.24503704  0.49642662     0.07200
C2669       C  0.10348420  0.22227558  0.50073021    -0.02700
C2670       C  0.13066051  0.22402115  0.50051750    -0.07200
C2671       C  0.14332974  0.24830125  0.49606570     0.06400
C2672       C  0.12805365  0.27121261  0.49196265    -0.02200
Br2673     Br  0.14281656  0.30578794  0.48753224    -0.01900
H2674       H  0.08910865  0.28689025  0.48891819     0.10300
H2675       H  0.14192716  0.20617365  0.50361428     0.08300
Br2676     Br  0.08761149  0.18847557  0.50684661    -0.02300
C2677       C  0.98442173  0.21665650  0.61030574    -0.08900
C2678       C  0.99103673  0.24042223  0.59718571     0.07200
C2679       C  0.99916519  0.26168519  0.61385322    -0.02700
C2680       C  0.00120932  0.25864775  0.64237600    -0.07200
C2681       C  0.99472335  0.23475344  0.65559862     0.06400
C2682       C  0.98594513  0.21370065  0.63883973    -0.02200
Br2683     Br  0.97680627  0.17966451  0.65307469    -0.01900
H2684       H  0.97836767  0.19996411  0.59812128     0.10300
H2685       H  0.00758115  0.27536676  0.65434172     0.08300
Br2686     Br  0.00742596  0.29556225  0.59866585    -0.02300
C2687       C  0.86490440  0.24277676  0.20857259    -0.08900
C2688       C  0.85376995  0.23844151  0.23430936     0.07200
C2689       C  0.86967215  0.22937493  0.25570498    -0.02700
C2690       C  0.89632363  0.22595303  0.25138163    -0.07200
C2691       C  0.90763576  0.23127370  0.22598554     0.06400
C2692       C  0.89163295  0.23924233  0.20422836    -0.02200
Br2693     Br  0.90476031  0.24427619  0.16799096    -0.01900
H2694       H  0.85278335  0.24910891  0.19176148     0.10300
H2695       H  0.90837066  0.21955370  0.26823002     0.08300
Br2696     Br  0.85633404  0.21981197  0.29082682    -0.02300
C2697       C  0.11680921  0.20740939  0.22208592    -0.08900
C2698       C  0.10181557  0.23031137  0.21863841     0.07200
C2699       C  0.11427581  0.25495330  0.21636421    -0.02700
C2700       C  0.14123612  0.25660539  0.21929399    -0.07200
C2701       C  0.15617922  0.23401746  0.22458828     0.06400
C2702       C  0.14392017  0.20906532  0.22528184    -0.02200
Br2703     Br  0.16246191  0.17709694  0.23357825    -0.01900
H2704       H  0.10726246  0.18840971  0.22393845     0.10300
H2705       H  0.15051664  0.27579213  0.21807319     0.08300
Br2706     Br  0.09540663  0.28702414  0.20938373    -0.02300
C2707       C  0.01085860  0.38098183  0.26000244    -0.08900
C2708       C  0.00122344  0.39737614  0.23897902     0.07200
C2709       C  0.99240942  0.38394363  0.21535752    -0.02700
C2710       C  0.99331761  0.35581802  0.21316697    -0.07200
C2711       C  0.00352432  0.33935103  0.23392340     0.06400
C2712       C  0.01244775  0.35290678  0.25762254    -0.02200
Br2713     Br  0.02679996  0.33447214  0.28821378    -0.01900
H2714       H  0.01753163  0.39015355  0.27859752     0.10300
H2715       H  0.98633715  0.34680103  0.19461967     0.08300
Br2716     Br  0.97981638  0.40342184  0.18468164    -0.02300
C2717       C  0.99068683  0.20877763  0.37721655    -0.08900
C2718       C  0.99814314  0.23181027  0.39111425     0.07200
C2719       C  0.00799583  0.25301609  0.37545511    -0.02700
C2720       C  0.01018683  0.25097670  0.34693048    -0.07200
C2721       C  0.00255794  0.22802240  0.33279785     0.06400
C2722       C  0.99288162  0.20663201  0.34864282    -0.02200
Br2723     Br  0.98368680  0.17318804  0.33305607    -0.01900
H2724       H  0.98349859  0.19208416  0.38877428     0.10300
H2725       H  0.01755866  0.26778541  0.33568749     0.08300
Br2726     Br  0.01825757  0.28560010  0.39210277    -0.02300
C2727       C  0.89692326  0.76761317  0.01231276    -0.08900
C2728       C  0.90992946  0.74780225  0.99778324     0.07200
C2729       C  0.89518997  0.72913167  0.98333446    -0.02700
C2730       C  0.86787291  0.73060311  0.98345467    -0.07200
C2731       C  0.85452107  0.75045792  0.99803540     0.06400
C2732       C  0.86960660  0.76919521  0.01262555    -0.02200
Br2733     Br  0.85501325  0.79758090  0.03364169    -0.01900
H2734       H  0.90821919  0.78220823  0.02325232     0.10300
H2735       H  0.85707634  0.71574658  0.97235689     0.08300
Br2736     Br  0.91147999  0.70025475  0.96464670    -0.02300
C2737       C  0.10843373  0.71605588  0.99485816    -0.08900
C2738       C  0.09376688  0.73903654  0.99116528     0.07200
C2739       C  0.10671046  0.76288191  0.98531140    -0.02700
C2740       C  0.13410848  0.76363850  0.98412343    -0.07200
C2741       C  0.14901993  0.74077442  0.98874189     0.06400
C2742       C  0.13577808  0.71662841  0.99353434    -0.02200
Br2743     Br  0.15364245  0.68342521  0.99704994    -0.01900
H2744       H  0.09846727  0.69755710  0.99862664     0.10300
H2745       H  0.14377387  0.78229723  0.98033613     0.08300
Br2746     Br  0.08755537  0.79489554  0.97961313    -0.02300
C2747       C  0.01365985  0.74182304  0.91747124    -0.08900
C2748       C  0.00087120  0.76094493  0.93367554     0.07200
C2749       C  0.98564838  0.77971124  0.91876638    -0.02700
C2750       C  0.98633202  0.78094217  0.88990046    -0.07200
C2751       C  0.00064371  0.76289709  0.87391801     0.06400
C2752       C  0.01379106  0.74256572  0.88859111    -0.02200
Br2753     Br  0.03204948  0.71414799  0.87106829    -0.01900
H2754       H  0.02318424  0.72532297  0.92715136     0.10300
H2755       H  0.97490827  0.79602748  0.87982534     0.08300
Br2756     Br  0.96154536  0.80350692  0.93567463    -0.02300
C2757       C  0.01752307  0.74628028  0.07229253    -0.08900
C2758       C  0.00444428  0.76497279  0.05563265     0.07200
C2759       C  0.98989608  0.78452270  0.07034925    -0.02700
C2760       C  0.99108567  0.78657919  0.09926666    -0.07200
C2761       C  0.00496827  0.76842788  0.11546735     0.06400
C2762       C  0.01753579  0.74764039  0.10125964    -0.02200
Br2763     Br  0.03502718  0.72013304  0.12081417    -0.01900
H2764       H  0.02714383  0.72961407  0.06298119     0.10300
H2765       H  0.97993269  0.80192150  0.10929547     0.08300
Br2766     Br  0.96569977  0.80796606  0.05305927    -0.02300
C2767       C  0.73125242  0.13479640  0.02280822    -0.08900
C2768       C  0.75149214  0.14473799  0.00622806     0.07200
C2769       C  0.76593281  0.12664553  0.99010262    -0.02700
C2770       C  0.75913937  0.09987226  0.99012272    -0.07200
C2771       C  0.73830699  0.09041448  0.00598274     0.06400
C2772       C  0.72462773  0.10808720  0.02275467    -0.02200
Br2773     Br  0.69544036  0.09712925  0.04452495    -0.01900
H2774       H  0.71978417  0.14795286  0.03541070     0.10300
H2775       H  0.77025540  0.08626145  0.97768512     0.08300
Br2776     Br  0.79504194  0.13639446  0.96743432    -0.02300
C2777       C  0.75539978  0.89427853  0.00854886    -0.08900
C2778       C  0.73163279  0.90438347  0.99908507     0.07200
C2779       C  0.71356053  0.88730103  0.98693411    -0.02700
C2780       C  0.71918788  0.86032231  0.98485647    -0.07200
C2781       C  0.74300507  0.84990060  0.99450563     0.06400
C2782       C  0.76139229  0.86746562  0.00617411    -0.02200
Br2783     Br  0.79563384  0.85699833  0.01807684    -0.01900
H2784       H  0.76968719  0.90757831  0.01720277     0.10300
H2785       H  0.70461609  0.84742499  0.97605531     0.08300
Br2786     Br  0.68070093  0.90013227  0.97381954    -0.02300
C2787       C  0.72870146  0.01526296  0.92652577    -0.08900
C2788       C  0.74513069  0.99866779  0.94204006     0.07200
C2789       C  0.76258633  0.98233721  0.92677813    -0.02700
C2790       C  0.76464931  0.98466379  0.89811516    -0.07200
C2791       C  0.74917037  0.00237063  0.88294252     0.06400
C2792       C  0.73080876  0.01763729  0.89794036    -0.02200
Br2793     Br  0.70809421  0.04308108  0.88125054    -0.01900
H2794       H  0.71355714  0.02651521  0.93649760     0.10300
H2795       H  0.77830130  0.97196399  0.88752084     0.08300
Br2796     Br  0.78403426  0.95547315  0.94308873    -0.02300
C2797       C  0.72805430  0.00931008  0.07958657    -0.08900
C2798       C  0.74533565  0.99469344  0.06278818     0.07200
C2799       C  0.76331625  0.97783903  0.07673252    -0.02700
C2800       C  0.76542000  0.97822006  0.10544188    -0.07200
C2801       C  0.74908051  0.99388920  0.12174239     0.06400
C2802       C  0.72979386  0.00902122  0.10833812    -0.02200
Br2803     Br  0.70541917  0.03004451  0.12858731    -0.01900
H2804       H  0.71261252  0.02086594  0.07052507     0.10300
H2805       H  0.77975037  0.96567706  0.11519603     0.08300
Br2806     Br  0.78539219  0.95267950  0.05857866    -0.02300
C2807       C  0.90257230  0.23984964  0.98452921    -0.08900
C2808       C  0.91320960  0.26297402  0.99553395     0.07200
C2809       C  0.89665876  0.28055804  0.00934228    -0.02700
C2810       C  0.86983884  0.27525921  0.01115219    -0.07200
C2811       C  0.85881685  0.25238397  0.99943846     0.06400
C2812       C  0.87584567  0.23428717  0.98639628    -0.02200
Br2813     Br  0.86476812  0.20146109  0.97065734    -0.01900
H2814       H  0.91533197  0.22572813  0.97474571     0.10300
H2815       H  0.85752017  0.28951806  0.02139548     0.08300
Br2816     Br  0.90963542  0.31264699  0.02486702    -0.02300
C2817       C  0.11373408  0.26914880  0.97508896    -0.08900
C2818       C  0.09835772  0.25279837  0.99154971     0.07200
C2819       C  0.11070695  0.23305853  0.00709854    -0.02700
C2820       C  0.13802954  0.23078070  0.00680821    -0.07200
C2821       C  0.15375335  0.24773754  0.99101079     0.06400
C2822       C  0.14104315  0.26700990  0.97468535    -0.02200
Br2823     Br  0.15897806  0.29213052  0.95205428    -0.01900
H2824       H  0.10432712  0.28421194  0.96292480     0.10300
H2825       H  0.14698681  0.21559153  0.01915974     0.08300
Br2826     Br  0.09122690  0.20769782  0.02783602    -0.02300
C2827       C  0.01898637  0.25481766  0.91571799    -0.08900
C2828       C  0.00262138  0.24041175  0.93371066     0.07200
C2829       C  0.98432396  0.22307469  0.92071947    -0.02700
C2830       C  0.98386962  0.21976084  0.89201193    -0.07200
C2831       C  0.00093254  0.23350220  0.87462653     0.06400
C2832       C  0.01857223  0.25120717  0.88708072    -0.02200
Br2833     Br  0.04299551  0.27085597  0.86549990    -0.01900
H2834       H  0.03198257  0.26968718  0.92363049     0.10300
H2835       H  0.96961616  0.20654851  0.88313179     0.08300
Br2836     Br  0.95827084  0.20339407  0.94010062    -0.02300
C2837       C  0.02189518  0.26068960  0.07194617    -0.08900
C2838       C  0.00366215  0.24754592  0.05505460     0.07200
C2839       C  0.98468424  0.23173571  0.06923427    -0.02700
C2840       C  0.98574374  0.22802605  0.09780960    -0.07200
C2841       C  0.00514422  0.23961890  0.11400909     0.06400
C2842       C  0.02308523  0.25646578  0.10054323    -0.02200
Br2843     Br  0.05024805  0.27376211  0.12045648    -0.01900
H2844       H  0.03537026  0.27466337  0.06318869     0.10300
H2845       H  0.97111647  0.21575995  0.10752976     0.08300
Br2846     Br  0.95650720  0.21343483  0.05157263    -0.02300
C2847       C  0.26630775  0.88867849  0.01234707    -0.08900
C2848       C  0.24922574  0.90305555  0.99590546     0.07200
C2849       C  0.23136854  0.88933957  0.97932550    -0.02700
C2850       C  0.23158395  0.86164408  0.97880009    -0.07200
C2851       C  0.24912244  0.84709927  0.99493301     0.06400
C2852       C  0.26650005  0.86118389  0.01219982    -0.02200
Br2853     Br  0.29192064  0.84524370  0.03594010    -0.01900
H2854       H  0.28002354  0.89910530  0.02518977     0.10300
H2855       H  0.21767581  0.85146977  0.96598380     0.08300
Br2856     Br  0.20503999  0.90724784  0.95869053    -0.02300
C2857       C  0.28549848  0.10443509  0.01435955    -0.08900
C2858       C  0.26426096  0.08929155  0.00570015     0.07200
C2859       C  0.23983100  0.10147329  0.00159923    -0.02700
C2860       C  0.23706361  0.12864169  0.00589094    -0.07200
C2861       C  0.25856330  0.14399873  0.01367470     0.06400
C2862       C  0.28298260  0.13166311  0.01791653    -0.02200
Br2863     Br  0.31358956  0.15114777  0.02827347    -0.01900
H2864       H  0.30418645  0.09501175  0.01790038     0.10300
H2865       H  0.21842950  0.13798744  0.00182231     0.08300
Br2866     Br  0.20990288  0.08176800  0.98995326    -0.02300
C2867       C  0.22765321  0.01507461  0.92482726    -0.08900
C2868       C  0.24732512  0.00163160  0.93955585     0.07200
C2869       C  0.26874645  0.99223586  0.92374693    -0.02700
C2870       C  0.26824068  0.99308425  0.89492505    -0.07200
C2871       C  0.24748111  0.00464833  0.88016389     0.06400
C2872       C  0.22738374  0.01650016  0.89600822    -0.02200
Br2873     Br  0.19893521  0.03570244  0.88009815    -0.01900
H2874       H  0.21263163  0.02566619  0.93567989     0.10300
H2875       H  0.28472547  0.98491059  0.88395924     0.08300
Br2876     Br  0.30053256  0.97962194  0.93990989    -0.02300
C2877       C  0.26883738  0.98411148  0.10414990    -0.08900
C2878       C  0.25035201  0.99861794  0.11939070     0.07200
C2879       C  0.23223311  0.01392444  0.10416841    -0.02700
C2880       C  0.23191057  0.01295176  0.07543808    -0.07200
C2881       C  0.24908609  0.99690221  0.06011859     0.06400
C2882       C  0.26900890  0.98390270  0.07532063    -0.02200
Br2883     Br  0.29913030  0.96797650  0.05872931    -0.01900
H2884       H  0.28403174  0.97338311  0.11473083     0.10300
H2885       H  0.21850771  0.02590561  0.06497511     0.08300
Br2886     Br  0.20808629  0.03822233  0.12060106    -0.02300
C2887       C  0.88829166  0.98618202  0.72658388    -0.08900
C2888       C  0.90648415  0.99874039  0.74350404     0.07200
C2889       C  0.89736048  0.01085299  0.76763734    -0.02700
C2890       C  0.87060832  0.01075653  0.77404983    -0.07200
C2891       C  0.85236800  0.99897674  0.75670183     0.06400
C2892       C  0.86144967  0.98646227  0.73281964    -0.02200
Br2893     Br  0.83797303  0.96873718  0.70856064    -0.01900
H2894       H  0.89500482  0.97643950  0.70827952     0.10300
H2895       H  0.86396663  0.02030815  0.79249903     0.08300
Br2896     Br  0.92050881  0.02697742  0.79325029    -0.02300
C2897       C  0.98287455  0.07599994  0.73508194    -0.08900
C2898       C  0.99983265  0.05979038  0.75076125     0.07200
C2899       C  0.01669752  0.07471596  0.76852204    -0.02700
C2900       C  0.01529432  0.10292969  0.77088134    -0.07200
C2901       C  0.99742078  0.11877375  0.75621090     0.06400
C2902       C  0.98105771  0.10418916  0.73801142    -0.02200
Br2903     Br  0.95448119  0.12115083  0.71682538    -0.01900
H2904       H  0.97060392  0.06686242  0.71999263     0.10300
H2905       H  0.02852702  0.11263521  0.78479894     0.08300
Br2906     Br  0.04230391  0.05863298  0.79174134    -0.02300
C2907       C  0.10242036  0.01394024  0.76950796    -0.08900
C2908       C  0.09202950  0.99765328  0.74919041     0.07200
C2909       C  0.10878079  0.97996130  0.73571032    -0.02700
C2910       C  0.13534102  0.97900789  0.74232930    -0.07200
C2911       C  0.14613223  0.99548945  0.76248859     0.06400
C2912       C  0.12904230  0.01298796  0.77639763    -0.02200
Br2913     Br  0.13999212  0.03600195  0.80521993    -0.01900
H2914       H  0.08961079  0.02715275  0.78046598     0.10300
H2915       H  0.14767030  0.96547029  0.73110931     0.08300
Br2916     Br  0.09655686  0.95760720  0.70699172    -0.02300
C2917       C  0.98161562  0.89531686  0.77479663    -0.08900
C2918       C  0.00069638  0.88016744  0.76080165     0.07200
C2919       C  0.01780457  0.89552999  0.74409510    -0.02700
C2920       C  0.01562803  0.92369059  0.74196091    -0.07200
C2921       C  0.99740109  0.93931492  0.75691583     0.06400
C2922       C  0.97956786  0.92361361  0.77285845    -0.02200
Br2923     Br  0.95034243  0.93835868  0.79196103    -0.01900
H2924       H  0.96751249  0.88492829  0.78726662     0.10300
H2925       H  0.02839813  0.93325257  0.72752927     0.08300
Br2926     Br  0.04554179  0.87969731  0.72343541    -0.02300
C2927       C  0.11493603  0.99241291  0.27229840    -0.08900
C2928       C  0.09755187  0.00022862  0.25194266     0.07200
C2929       C  0.10772519  0.00728971  0.22622802    -0.02700
C2930       C  0.13486808  0.00725671  0.22161335    -0.07200
C2931       C  0.15249368  0.99972798  0.24209614     0.06400
C2932       C  0.14205049  0.99223498  0.26779865    -0.02200
Br2933     Br  0.16336156  0.98313573  0.29855960    -0.01900
H2934       H  0.10731618  0.98699724  0.29207851     0.10300
H2935       H  0.14217368  0.01263811  0.20169645     0.08300
Br2936     Br  0.08526366  0.01540431  0.19619294    -0.02300
C2937       C  0.02260131  0.89640789  0.22648053    -0.08900
C2938       C  0.00219749  0.88115013  0.23782257     0.07200
C2939       C  0.98456584  0.89587151  0.25468889    -0.02700
C2940       C  0.98685911  0.92393886  0.25835901    -0.07200
C2941       C  0.00629922  0.93970498  0.24552019     0.06400
C2942       C  0.02513110  0.92433242  0.23036373    -0.02200
Br2943     Br  0.05546026  0.93920513  0.21310293    -0.01900
H2944       H  0.03719238  0.88640309  0.21429305     0.10300
H2945       H  0.97314317  0.93330578  0.27193115     0.08300
Br2946     Br  0.95612035  0.87922490  0.27353702    -0.02300
C2947       C  0.89426314  0.00895558  0.27158879    -0.08900
C2948       C  0.91151466  0.00362309  0.25016083     0.07200
C2949       C  0.90122882  0.99965817  0.22395270    -0.02700
C2950       C  0.87405438  0.00012022  0.21964794    -0.07200
C2951       C  0.85657616  0.00413660  0.24134039     0.06400
C2952       C  0.86709294  0.00925527  0.26744555    -0.02200
Br2953     Br  0.84547066  0.01826674  0.29798232    -0.01900
H2954       H  0.90201653  0.01274221  0.29166598     0.10300
H2955       H  0.86656028  0.99651166  0.19942831     0.08300
Br2956     Br  0.92378385  0.99323546  0.19362148    -0.02300
C2957       C  0.02016516  0.07691443  0.25119951    -0.08900
C2958       C  0.00434766  0.05966779  0.23529375     0.07200
C2959       C  0.98757807  0.07342815  0.21650875    -0.02700
C2960       C  0.98869747  0.10154934  0.21276389    -0.07200
C2961       C  0.00534025  0.11821013  0.22793411     0.06400
C2962       C  0.02063392  0.10505824  0.24784702    -0.02200
Br2963     Br  0.04245184  0.12513262  0.27172265    -0.01900
H2964       H  0.03189727  0.06873800  0.26734810     0.10300
H2965       H  0.97562551  0.11062145  0.19822111     0.08300
Br2966     Br  0.96085197  0.05610325  0.19585410    -0.02300
C2967       C  0.03749999  0.87198148  0.98447377    -0.08900
C2968       C  0.01588539  0.85552109  0.98791535     0.07200
C2969       C  0.99045062  0.86571941  0.98621450    -0.02700
C2970       C  0.98686275  0.89225186  0.98112782    -0.07200
C2971       C  0.00834147  0.90923931  0.97889222     0.06400
C2972       C  0.03398875  0.89897133  0.98032798    -0.02200
Br2973     Br  0.06481002  0.92061469  0.97929914    -0.01900
H2974       H  0.05703159  0.86380457  0.98551638     0.10300
H2975       H  0.96707699  0.89987967  0.98032771     0.08300
Br2976     Br  0.95987908  0.84461557  0.99185553    -0.02300
C2977       C  0.85111925  0.98790089  0.01389295    -0.08900
C2978       C  0.83833197  0.00943904  0.00216897     0.07200
C2979       C  0.85276676  0.02959518  0.98973043    -0.02700
C2980       C  0.87995058  0.02771350  0.98872243    -0.07200
C2981       C  0.89294913  0.00593107  0.00023102     0.06400
C2982       C  0.87822200  0.98600709  0.01324677    -0.02200
Br2983     Br  0.89350021  0.95667689  0.03222305    -0.01900
H2984       H  0.83981064  0.97245192  0.02358035     0.10300
H2985       H  0.89094052  0.04337211  0.97899642     0.08300
Br2986     Br  0.83607185  0.06050215  0.97545182    -0.02300
C2987       C  0.98194373  0.11568949  0.01517431    -0.08900
C2988       C  0.00387723  0.09978295  0.01976112     0.07200
C2989       C  0.02919057  0.11066269  0.01854676    -0.02700
C2990       C  0.03208606  0.13713474  0.01168104    -0.07200
C2991       C  0.01015465  0.15226765  0.00528495     0.06400
C2992       C  0.98495932  0.14167475  0.00744985    -0.02200
Br2993     Br  0.95415812  0.16175205  0.99950505    -0.01900
H2994       H  0.96242801  0.10736084  0.01583669     0.10300
H2995       H  0.05138165  0.14588412  0.01074957     0.08300
Br2996     Br  0.06033439  0.08999413  0.02302521    -0.02300
C2997       C  0.13819449  0.01977475  0.98635893    -0.08900
C2998       C  0.15096889  0.00114338  0.00272745     0.07200
C2999       C  0.13597956  0.98445999  0.01965131    -0.02700
C3000       C  0.10875048  0.98703788  0.02023564    -0.07200
C3001       C  0.09610907  0.00554671  0.00365408     0.06400
C3002       C  0.11101551  0.02200264  0.98659973    -0.02200
Br3003     Br  0.09526560  0.04850482  0.96406790    -0.01900
H3004       H  0.14952309  0.03286129  0.97352133     0.10300
H3005       H  0.09732050  0.97384410  0.03288055     0.08300
Br3006     Br  0.15120860  0.95631554  0.04035658    -0.02300
C3007       C  0.96485647  0.00911625  0.89193320    -0.08900
C3008       C  0.98460413  0.02471421  0.90310619     0.07200
C3009       C  0.00402978  0.03597767  0.88682216    -0.02700
C3010       C  0.00476456  0.02962281  0.85956528    -0.07200
C3011       C  0.98617910  0.01235263  0.84861904     0.06400
C3012       C  0.96552672  0.00284408  0.86456456    -0.02200
Br3013     Br  0.93807520  0.98151093  0.85006637    -0.01900
H3014       H  0.95002647  0.00032055  0.90484427     0.10300
H3015       H  0.02012859  0.03767843  0.84687895     0.08300
Br3016     Br  0.03031369  0.05901578  0.90133179    -0.02300
C3017       C  0.00626554  0.96226169  0.10490119    -0.08900
C3018       C  0.98386654  0.97420494  0.09437720     0.07200
C3019       C  0.96714913  0.98885423  0.11107789    -0.02700
C3020       C  0.97513199  0.99484899  0.13721644    -0.07200
C3021       C  0.99914861  0.98554969  0.14669813     0.06400
C3022       C  0.01421578  0.96812837  0.13101103    -0.02200
Br3023     Br  0.04717510  0.95458424  0.14302817    -0.01900
H3024       H  0.01930237  0.95126326  0.09169514     0.10300
H3025       H  0.96298006  0.00714523  0.15001439     0.08300
Br3026     Br  0.93524025  0.00377525  0.09767127    -0.02300
loop_ 
_geom_bond_atom_site_label_1 
_geom_bond_atom_site_label_2 
_geom_bond_distance 
_geom_bond_site_symmetry_2 
_ccdc_geom_bond_type 
Zn1           O5   1.890   1_556  S
Zn1           O6   1.909   1_556  S
Zn1          O10   1.982       .  S
Zn1          O17   1.948       .  S
Zn2           O5   1.902   1_455  S
Zn2           O7   1.931   1_545  S
Zn2           O9   1.992       .  S
Zn2          O13   2.019       .  S
Zn3           O5   1.910   1_565  S
Zn3           O8   1.995   1_554  S
Zn3          O11   1.959       .  S
Zn3          O14   1.929   1_554  S
Zn4           O5   1.903   1_466  S
Zn4          O12   1.985       .  S
Zn4          O15   1.992   1_565  S
Zn4          O16   1.934   1_565  S
O6           C18   1.265       .  A
O7           C19   1.269   1_455  A
O8           C20   1.268   1_565  A
O9           C18   1.270   1_455  A
O10          C20   1.267       .  A
O11          C19   1.265       .  A
O12          C21   1.269       .  A
O13          C22   1.271       .  A
O14          C21   1.267   1_655  A
O15          C22   1.268   1_556  A
O16          C23   1.268   1_455  A
O17          C23   1.265       .  A
C18        C2988   1.445   1_655  S
C19        C3018   1.426       .  S
C20        C2981   1.470   1_556  S
C21        C2971   1.456       .  S
C22        C3001   1.467       .  S
C23        C3008   1.425       .  S
C24          C26   1.568       .  S
C24          C28   1.567   1_455  S
C24          C27   1.514       .  S
C24        C2941   1.633       .  S
C25          C29   1.557       .  S
C25          C31   1.556   1_455  S
C25          C30   1.543       .  S
C25        C2958   1.629       .  S
C26          C34   1.389       .  A
C26          C29   1.439   1_565  A
C27          C38   1.352       .  A
C27          C30   1.408   1_565  A
C28          C42   1.395       .  A
C28          C31   1.432   1_565  A
C29          C32   1.387       .  A
C30          C36   1.374       .  A
C31          C39   1.384       .  A
C32          N33   1.351       .  A
C32          H45   1.082       .  S
N33          C34   1.354   1_545  A
N33        C2928   1.446       .  S
C34          H35   1.080       .  S
C36          N37   1.356   1_545  A
C36          H46   1.081       .  S
N37          C38   1.338       .  A
N37        C3021   1.407   1_455  S
C38          H44   1.083       .  S
C39          N40   1.351       .  A
C39          H41   1.081       .  S
N40          C42   1.357   1_545  A
N40        C2948   1.444       .  S
C42          H43   1.080       .  S
C47          C49   1.556   1_655  S
C47          C51   1.563       .  S
C47          C50   1.516       .  S
C47        C2898   1.633       .  S
C48          C52   1.554   1_655  S
C48          C54   1.566       .  S
C48          C53   1.547       .  S
C48        C2921   1.636       .  S
C49          C57   1.388       .  A
C49          C52   1.427   1_545  A
C50          C61   1.349       .  A
C50          C53   1.411   1_545  A
C51          C65   1.392       .  A
C51          C54   1.446   1_545  A
C52          C55   1.385       .  A
C53          C59   1.377       .  A
C54          C62   1.389       .  A
C55          N56   1.351       .  A
C55          H68   1.082       .  S
N56          C57   1.356   1_565  A
N56        C2908   1.443       .  S
C57          H58   1.081       .  S
C59          N60   1.357   1_565  A
C59          H69   1.081       .  S
N60          C61   1.340       .  A
N60        C3011   1.409       .  S
C61          H67   1.083       .  S
C62          N63   1.351       .  A
C62          H64   1.080       .  S
N63          C65   1.352   1_565  A
N63        C2888   1.447       .  S
C65          H66   1.080       .  S
C70          C72   1.540       .  S
C70          C74   1.535   1_565  S
C70          C73   1.546   1_565  S
C70        C2881   1.578       .  S
C71          C75   1.544       .  S
C71          C77   1.542   1_565  S
C71          C76   1.550   1_565  S
C71        C2868   1.581   1_565  S
C72          C80   1.380       .  A
C72          C75   1.414   1_554  A
C73          C84   1.377       .  A
C73          C76   1.407   1_554  A
C74          C88   1.378       .  A
C74          C77   1.420   1_554  A
C75          C78   1.383       .  A
C76          C82   1.379       .  A
C77          C85   1.385       .  A
C78          N79   1.354       .  A
C78          H91   1.082       .  S
N79          C80   1.353   1_556  A
N79        C2848   1.439       .  S
C80          H81   1.083       .  S
C82          N83   1.356   1_556  A
C82          H92   1.081   1_545  S
N83          C84   1.355       .  A
N83        C2998   1.436       .  S
C84          H90   1.080   1_545  S
C85          N86   1.352   1_556  A
C85          H87   1.083       .  S
N86          C88   1.347       .  A
N86        C2858   1.432       .  S
C88          H89   1.083       .  S
C93          C95   1.563       .  S
C93          C97   1.542   1_455  S
C93          C96   1.519       .  S
C93        C2838   1.595       .  S
C94          C98   1.565       .  S
C94         C100   1.544   1_455  S
C94          C99   1.532       .  S
C94        C2828   1.595       .  S
C95         C103   1.391       .  A
C95          C98   1.445   1_554  A
C96         C107   1.358       .  A
C96          C99   1.399   1_554  A
C97         C111   1.378       .  A
C97         C100   1.407   1_554  A
C98         C101   1.390       .  A
C99         C105   1.373       .  A
C100        C108   1.380       .  A
C101        N102   1.349       .  A
C101        H114   1.081       .  S
N102        C103   1.350   1_556  A
N102       C2818   1.442       .  S
C103        H104   1.079       .  S
C105        N106   1.353   1_556  A
C105        H115   1.082       .  S
N106        C107   1.343       .  A
N106       C2991   1.407       .  S
C107        H113   1.083       .  S
C108        N109   1.358       .  A
C108        H110   1.082       .  S
N109        C111   1.355   1_556  A
N109       C2808   1.440       .  S
C111        H112   1.082       .  S
C116        C118   1.539       .  S
C116        C120   1.558   1_565  S
C116        C119   1.532   1_565  S
C116       C2788   1.581       .  S
C117        C121   1.537       .  S
C117        C123   1.556   1_565  S
C117        C122   1.533   1_565  S
C117       C2798   1.581       .  S
C118        C126   1.379       .  A
C118        C121   1.403   1_556  A
C119        C130   1.371       .  A
C119        C122   1.398   1_556  A
C120        C134   1.388       .  A
C120        C123   1.438   1_556  A
C121        C124   1.378       .  A
C122        C128   1.370       .  A
C123        C131   1.387       .  A
C124        N125   1.356       .  A
C124        H137   1.082       .  S
N125        C126   1.355   1_554  A
N125       C2778   1.435   1_554  S
C126        H127   1.082       .  S
C128        N129   1.353       .  A
C128        H138   1.082       .  S
N129        C130   1.352   1_554  A
N129       C2978   1.422       .  S
C130        H136   1.082       .  S
C131        N132   1.348       .  A
C131        H133   1.082       .  S
N132        C134   1.348   1_554  A
N132       C2771   1.439       .  S
C134        H135   1.081       .  S
C139        C141   1.557       .  S
C139        C143   1.533   1_455  S
C139        C142   1.530       .  S
C139       C2748   1.596       .  S
C140        C144   1.566       .  S
C140        C146   1.541   1_455  S
C140        C145   1.541       .  S
C140       C2758   1.603       .  S
C141        C149   1.387       .  A
C141        C144   1.444   1_556  A
C142        C153   1.363       .  A
C142        C145   1.407   1_556  A
C143        C157   1.374       .  A
C143        C146   1.401   1_556  A
C144        C147   1.392       .  A
C145        C151   1.374       .  A
C146        C154   1.378       .  A
C147        N148   1.350   1_554  A
C147        H160   1.082       .  S
N148        C149   1.346       .  A
N148       C2738   1.436       .  S
C149        H150   1.082       .  S
C151        N152   1.355   1_554  A
C151        H161   1.082       .  S
N152        C153   1.348       .  A
N152       C2968   1.415       .  S
C153        H159   1.082       .  S
C154        N155   1.359   1_554  A
C154        H156   1.082       .  S
N155        C157   1.356       .  A
N155       C2728   1.437       .  S
C157        H158   1.082       .  S
Zn162       O166   2.005       .  S
Zn162       O167   2.004       .  S
Zn162       O171   2.090       .  S
Zn162       O178   2.138       .  S
Zn163       O166   2.031       .  S
Zn163       O168   2.218       .  S
Zn163       O170   2.036       .  S
Zn163       O174   2.161       .  S
Zn164       O166   2.008   1_655  S
Zn164       O169   2.071       .  S
Zn164       O172   2.134       .  S
Zn164       O175   1.998       .  S
Zn165       O166   2.022   1_655  S
Zn165       O173   2.013       .  S
Zn165       O176   2.097       .  S
Zn165       O177   2.152       .  S
O167        C179   1.280       .  A
O168        C180   1.295       .  A
O169        C181   1.277   1_655  A
O170        C179   1.282       .  A
O171        C181   1.281       .  A
O172        C180   1.282   1_655  A
O173        C182   1.279       .  A
O174        C183   1.292       .  A
O175        C182   1.279       .  A
O176        C183   1.282   1_655  A
O177        C184   1.285   1_655  A
O178        C184   1.283       .  A
C179       C2698   1.463       .  S
C180       C2961   1.563       .  S
C181       C2721   1.520       .  S
C182       C2691   1.466       .  S
C183       C2841   1.529       .  S
C184       C2711   1.559       .  S
N185        C190   1.366       .  A
N185        C189   1.352       .  A
N185        H217   1.033       .  S
N186        C193   1.350       .  A
N186        C194   1.359       .  A
N187        C192   1.354       .  A
N187        C191   1.366       .  A
N187        H218   1.038       .  S
N188        C195   1.361       .  A
N188        C196   1.352       .  A
C189        C197   1.389       .  A
C189        C205   1.425       .  A
C190        C206   1.431   1_455  A
C190        C198   1.387       .  A
C191        C199   1.383       .  A
C191        C208   1.426       .  A
C192        C207   1.429       .  A
C192        C200   1.392       .  A
C193        C205   1.422       .  A
C193        C201   1.391       .  A
C194        C208   1.418   1_455  A
C194        C202   1.383       .  A
C195        C203   1.385       .  A
C195        C206   1.431       .  A
C196        C204   1.390       .  A
C196        C207   1.429       .  A
C197        C198   1.373       .  A
C197        H209   1.082       .  S
C198        H210   1.082       .  S
C199        C200   1.376       .  A
C199        H211   1.082       .  S
C200        H212   1.082       .  S
C201        C202   1.370       .  A
C201        H213   1.082       .  S
C202        H214   1.082       .  S
C203        C204   1.379       .  A
C203        H215   1.082       .  S
C204        H216   1.082       .  S
C205       C2668   1.479       .  S
C206       C2678   1.530       .  S
C207       C2661   1.486       .  S
C208       C2718   1.522       .  S
Zn219       O223   2.009   1_455  S
Zn219       O224   2.094       .  S
Zn219       O228   2.007       .  S
Zn219       O235   2.130       .  S
Zn220       O223   2.002       .  S
Zn220       O225   2.153       .  S
Zn220       O227   2.083       .  S
Zn220       O231   1.997       .  S
Zn221       O223   2.026   1_455  S
Zn221       O226   2.023       .  S
Zn221       O229   2.209       .  S
Zn221       O232   2.146       .  S
Zn222       O223   2.023       .  S
Zn222       O230   2.099       .  S
Zn222       O233   2.008       .  S
Zn222       O234   2.147       .  S
O224        C236   1.281   1_455  A
O225        C237   1.285       .  A
O226        C238   1.281       .  A
O227        C236   1.279       .  A
O228        C238   1.280       .  A
O229        C237   1.294   1_455  A
O230        C239   1.283       .  A
O231        C240   1.277       .  A
O232        C239   1.290   1_455  A
O233        C240   1.280       .  A
O234        C241   1.283       .  A
O235        C241   1.281   1_455  A
C236       C2681   1.525       .  S
C237       C2901   1.578       .  S
C238       C2631   1.461       .  S
C239       C2831   1.527   1_655  S
C240       C2641   1.475       .  S
C241       C2648   1.556       .  S
N242        C247   1.359       .  A
N242        C246   1.375       .  A
N242        H274   1.035       .  S
N243        C250   1.370       .  A
N243        C251   1.359       .  A
N244        C249   1.377       .  A
N244        C248   1.357       .  A
N244        H275   1.033       .  S
N245        C252   1.356       .  A
N245        C253   1.367       .  A
C246        C254   1.384       .  A
C246        C262   1.443       .  A
C247        C263   1.442       .  A
C247        C255   1.392       .  A
C248        C256   1.391       .  A
C248        C265   1.444       .  A
C249        C264   1.448   1_655  A
C249        C257   1.385       .  A
C250        C262   1.440   1_655  A
C250        C258   1.382       .  A
C251        C265   1.445       .  A
C251        C259   1.393       .  A
C252        C260   1.391       .  A
C252        C263   1.440       .  A
C253        C261   1.384       .  A
C253        C264   1.439       .  A
C254        C255   1.378       .  A
C254        H266   1.080       .  S
C255        H267   1.082       .  S
C256        C257   1.385       .  A
C256        H268   1.082       .  S
C257        H269   1.082       .  S
C258        C259   1.380       .  A
C258        H270   1.082       .  S
C259        H271   1.082       .  S
C260        C261   1.382       .  A
C260        H272   1.082       .  S
C261        H273   1.082       .  S
C262       C2708   1.563       .  S
C263       C2598   1.502       .  S
C264       C2618   1.562       .  S
C265       C2608   1.508       .  S
Zn276       O280   1.992   1_455  S
Zn276       O281   2.113       .  S
Zn276       O285   2.040       .  S
Zn276       O292   1.954       .  S
Zn277       O280   2.021       .  S
Zn277       O282   2.004       .  S
Zn277       O284   2.185       .  S
Zn277       O288   2.109       .  S
Zn278       O280   2.012       .  S
Zn278       O283   2.087       .  S
Zn278       O286   2.012       .  S
Zn278       O289   2.130       .  S
Zn279       O280   2.028   1_455  S
Zn279       O287   2.215       .  S
Zn279       O290   2.185       .  S
Zn279       O291   2.056       .  S
O281        C293   1.279       .  A
O282        C294   1.280       .  A
O283        C295   1.279       .  A
O284        C293   1.289   1_655  A
O285        C295   1.274   1_455  A
O286        C294   1.281       .  A
O287        C296   1.295       .  A
O288        C297   1.285   1_655  A
O289        C296   1.282   1_655  A
O290        C297   1.295       .  A
O291        C298   1.283       .  A
O292        C298   1.274       .  A
C293       C2621   1.562       .  S
C294       C2581   1.461       .  S
C295       C2591   1.513       .  S
C296       C2938   1.574       .  S
C297       C2761   1.542       .  S
C298       C2571   1.481       .  S
N299        C304   1.361       .  A
N299        C303   1.352       .  A
N299        H331   1.039       .  S
N300        C307   1.353       .  A
N300        C308   1.358       .  A
N301        C306   1.354       .  A
N301        C305   1.359       .  A
N301        H332   1.040       .  S
N302        C309   1.357       .  A
N302        C310   1.351       .  A
C303        C311   1.390       .  A
C303        C319   1.420       .  A
C304        C320   1.422       .  A
C304        C312   1.385       .  A
C305        C313   1.384       .  A
C305        C322   1.417   1_655  A
C306        C321   1.422       .  A
C306        C314   1.390       .  A
C307        C319   1.421       .  A
C307        C315   1.388       .  A
C308        C322   1.421       .  A
C308        C316   1.384       .  A
C309        C317   1.385       .  A
C309        C320   1.420   1_655  A
C310        C318   1.387       .  A
C310        C321   1.418       .  A
C311        C312   1.377       .  A
C311        H323   1.082       .  S
C312        H324   1.082       .  S
C313        C314   1.375       .  A
C313        H325   1.082       .  S
C314        H326   1.082       .  S
C315        C316   1.377       .  A
C315        H327   1.082       .  S
C316        H328   1.082       .  S
C317        C318   1.376       .  A
C317        H329   1.082       .  S
C318        H330   1.082       .  S
C319       C2538   1.485       .  S
C320       C2561   1.514       .  S
C321       C2548   1.490       .  S
C322       C2588   1.511   1_455  S
Zn333       O337   2.013       .  S
Zn333       O338   2.010       .  S
Zn333       O342   2.155       .  S
Zn333       O349   2.085       .  S
Zn334       O337   2.014       .  S
Zn334       O339   2.092       .  S
Zn334       O341   2.002       .  S
Zn334       O345   2.166       .  S
Zn335       O337   2.028   1_655  S
Zn335       O340   2.204       .  S
Zn335       O343   2.149       .  S
Zn335       O346   2.030       .  S
Zn336       O337   2.000   1_655  S
Zn336       O344   1.969       .  S
Zn336       O347   2.134       .  S
Zn336       O348   2.058       .  S
O338        C350   1.280       .  A
O339        C351   1.282       .  A
O340        C352   1.293   1_655  A
O341        C350   1.279       .  A
O342        C352   1.286       .  A
O343        C351   1.291   1_655  A
O344        C353   1.275       .  A
O345        C354   1.286   1_455  A
O346        C353   1.282       .  A
O347        C354   1.281       .  A
O348        C355   1.276   1_655  A
O349        C355   1.280       .  A
C350       C2521   1.463       .  S
C351       C2751   1.544       .  S
C352       C2918   1.578       .  S
C353       C2511   1.458       .  S
C354       C2531   1.563       .  S
C355       C2558   1.520       .  S
N356        C361   1.373       .  A
N356        C360   1.370       .  A
N356        H388   1.051       .  S
N357        C364   1.373       .  A
N357        C365   1.374       .  A
N358        C363   1.373       .  A
N358        C362   1.374       .  A
N358        H389   1.051       .  S
N359        C366   1.373       .  A
N359        C367   1.371       .  A
C360        C368   1.389       .  A
C360        C376   1.453   1_455  A
C361        C377   1.454       .  A
C361        C369   1.387       .  A
C362        C370   1.388       .  A
C362        C379   1.457       .  A
C363        C378   1.457       .  A
C363        C371   1.389       .  A
C364        C376   1.453       .  A
C364        C372   1.387       .  A
C365        C379   1.455       .  A
C365        C373   1.388       .  A
C366        C374   1.386       .  A
C366        C377   1.450       .  A
C367        C375   1.387       .  A
C367        C378   1.450   1_455  A
C368        C369   1.387       .  A
C368        H380   1.082       .  S
C369        H381   1.082       .  S
C370        C371   1.389       .  A
C370        H382   1.082       .  S
C371        H383   1.082       .  S
C372        C373   1.384       .  A
C372        H384   1.082       .  S
C373        H385   1.082       .  S
C374        C375   1.382       .  A
C374        H386   1.082       .  S
C375        H387   1.082       .  S
C376       C2651   1.557       .  S
C377       C2488   1.567       .  S
C378       C2528   1.562       .  S
C379       C2498   1.572       .  S
Zn390       O394   2.028       .  S
Zn390       O395   2.218       .  S
Zn390       O399   2.025       .  S
Zn390       O406   2.145       .  S
Zn391       O394   2.017       .  S
Zn391       O396   2.090       .  S
Zn391       O398   2.182       .  S
Zn391       O402   2.032       .  S
Zn392       O394   2.007       .  S
Zn392       O397   1.994       .  S
Zn392       O400   2.046       .  S
Zn392       O403   2.147       .  S
Zn393       O394   2.027       .  S
Zn393       O401   2.176       .  S
Zn393       O404   1.994       .  S
Zn393       O405   2.099       .  S
O395        C407   1.294       .  A
O396        C408   1.281       .  A
O397        C409   1.278       .  A
O398        C407   1.289       .  A
O399        C409   1.281       .  A
O400        C408   1.276       .  A
O401        C410   1.286       .  A
O402        C411   1.283       .  A
O403        C410   1.282       .  A
O404        C411   1.278       .  A
O405        C412   1.285       .  A
O406        C412   1.291       .  A
C407       C2451   1.590       .  S
C408       C2478   1.506       .  S
C409       C2468   1.461       .  S
C410       C2501   1.571       .  S
C411       C2458   1.469       .  S
C412       C2438   1.539       .  S
N413        C418   1.351       .  A
N413        C417   1.364       .  A
N413        H445   1.035       .  S
N414        C421   1.359       .  A
N414        C422   1.351       .  A
N415        C420   1.364       .  A
N415        C419   1.351       .  A
N415        H446   1.035       .  S
N416        C423   1.348       .  A
N416        C424   1.358       .  A
C417        C425   1.384       .  A
C417        C433   1.425       .  A
C418        C434   1.425       .  A
C418        C426   1.391       .  A
C419        C427   1.390       .  A
C419        C436   1.426   1_556  A
C420        C435   1.427       .  A
C420        C428   1.385       .  A
C421        C433   1.419       .  A
C421        C429   1.383       .  A
C422        C436   1.423       .  A
C422        C430   1.390       .  A
C423        C431   1.390       .  A
C423        C434   1.420   1_556  A
C424        C432   1.384       .  A
C424        C435   1.419       .  A
C425        C426   1.377       .  A
C425        H437   1.082       .  S
C426        H438   1.082       .  S
C427        C428   1.378       .  A
C427        H439   1.082       .  S
C428        H440   1.082       .  S
C429        C430   1.371       .  A
C429        H441   1.082       .  S
C430        H442   1.082       .  S
C431        C432   1.371       .  A
C431        H443   1.082       .  S
C432        H444   1.082       .  S
C433       C2408   1.518       .  S
C434       C2431   1.474   1_554  S
C435       C2481   1.517       .  S
C436       C2418   1.478       .  S
Zn447       O451   1.925   1_554  S
Zn447       O452   1.934       .  S
Zn447       O456   1.984       .  S
Zn447       O463   2.001       .  S
Zn448       O451   1.933   1_554  S
Zn448       O453   2.028       .  S
Zn448       O455   1.991       .  S
Zn448       O459   2.011       .  S
Zn449       O451   1.918       .  S
Zn449       O454   1.992       .  S
Zn449       O457   1.994       .  S
Zn449       O460   1.929       .  S
Zn450       O451   1.942       .  S
Zn450       O458   1.978       .  S
Zn450       O461   2.020       .  S
Zn450       O462   2.038       .  S
O452        C464   1.266       .  A
O453        C465   1.273   1_554  A
O454        C466   1.267       .  A
O455        C464   1.274       .  A
O456        C466   1.268   1_554  A
O457        C465   1.267       .  A
O458        C467   1.271       .  A
O459        C468   1.276       .  A
O460        C467   1.267       .  A
O461        C468   1.273   1_556  A
O462        C469   1.274       .  A
O463        C469   1.271   1_554  A
C464       C2378   1.450       .  S
C465       C2401   1.486       .  S
C466       C2428   1.467       .  S
C467       C2388   1.431       .  S
C468       C2768   1.492       .  S
C469       C2811   1.495       .  S
Zn470       O474   1.929       .  S
Zn470       O475   1.964       .  S
Zn470       O479   2.009       .  S
Zn470       O486   2.027       .  S
Zn471       O474   1.928       .  S
Zn471       O476   1.987       .  S
Zn471       O478   1.938       .  S
Zn471       O482   1.995       .  S
Zn472       O474   1.940   1_556  S
Zn472       O477   2.022       .  S
Zn472       O480   2.002       .  S
Zn472       O483   1.949       .  S
Zn473       O474   1.939   1_556  S
Zn473       O481   1.956       .  S
Zn473       O484   2.002       .  S
Zn473       O485   2.015       .  S
O475        C487   1.271       .  A
O476        C488   1.266   1_554  A
O477        C489   1.273       .  A
O478        C487   1.268       .  A
O479        C489   1.270   1_554  A
O480        C488   1.269       .  A
O481        C490   1.268       .  A
O482        C491   1.269       .  A
O483        C490   1.271       .  A
O484        C491   1.269   1_556  A
O485        C492   1.274       .  A
O486        C492   1.273   1_554  A
C487       C2348   1.442       .  S
C488       C2368   1.472       .  S
C489       C2781   1.490       .  S
C490       C2358   1.446       .  S
C491       C2421   1.473       .  S
C492       C2731   1.495       .  S
N493        C498   1.363       .  A
N493        C497   1.349       .  A
N493        H525   1.038       .  S
N494        C501   1.350       .  A
N494        C502   1.359       .  A
N495        C500   1.350       .  A
N495        C499   1.362       .  A
N495        H526   1.039       .  S
N496        C503   1.359       .  A
N496        C504   1.349       .  A
C497        C505   1.389       .  A
C497        C513   1.420       .  A
C498        C514   1.423       .  A
C498        C506   1.384       .  A
C499        C507   1.384       .  A
C499        C516   1.420       .  A
C500        C515   1.423   1_554  A
C500        C508   1.391       .  A
C501        C513   1.421   1_554  A
C501        C509   1.390       .  A
C502        C516   1.417       .  A
C502        C510   1.383       .  A
C503        C511   1.382       .  A
C503        C514   1.420       .  A
C504        C512   1.390       .  A
C504        C515   1.421       .  A
C505        C506   1.379       .  A
C505        H517   1.082       .  S
C506        H518   1.082       .  S
C507        C508   1.378       .  A
C507        H519   1.082       .  S
C508        H520   1.082       .  S
C509        C510   1.376       .  A
C509        H521   1.082       .  S
C510        H522   1.082       .  S
C511        C512   1.377       .  A
C511        H523   1.082       .  S
C512        H524   1.082       .  S
C513       C2371   1.476       .  S
C514       C2331   1.522       .  S
C515       C2338   1.478       .  S
C516       C2318   1.515       .  S
Zn527       O531   1.921   1_554  S
Zn527       O532   1.986       .  S
Zn527       O536   1.987       .  S
Zn527       O543   1.930       .  S
Zn528       O531   1.917       .  S
Zn528       O533   1.916       .  S
Zn528       O535   1.974       .  S
Zn528       O539   1.970       .  S
Zn529       O531   1.941       .  S
Zn529       O534   2.066       .  S
Zn529       O537   2.019       .  S
Zn529       O540   2.077       .  S
Zn530       O531   1.917   1_554  S
Zn530       O538   1.962       .  S
Zn530       O541   2.023       .  S
Zn530       O542   1.941       .  S
O532        C544   1.269       .  A
O533        C545   1.264       .  A
O534        C546   1.277       .  A
O535        C544   1.264   1_556  A
O536        C546   1.268   1_554  A
O537        C545   1.280       .  A
O538        C547   1.266   1_554  A
O539        C548   1.266       .  A
O540        C547   1.283       .  A
O541        C548   1.269   1_554  A
O542        C549   1.267       .  A
O543        C549   1.267       .  A
C544       C2308   1.469       .  S
C545       C2298   1.440       .  S
C546       C2741   1.488       .  S
C547       C2851   1.491       .  S
C548       C2341   1.477       .  S
C549       C2288   1.432       .  S
N550        C555   1.363       .  A
N550        C554   1.349       .  A
N550        H582   1.038       .  S
N551        C558   1.347       .  A
N551        C559   1.358       .  A
N552        C557   1.347       .  A
N552        C556   1.362       .  A
N552        H583   1.039       .  S
N553        C560   1.358       .  A
N553        C561   1.348       .  A
C554        C562   1.390       .  A
C554        C570   1.419       .  A
C555        C571   1.422       .  A
C555        C563   1.384       .  A
C556        C564   1.382       .  A
C556        C573   1.416       .  A
C557        C572   1.418   1_556  A
C557        C565   1.392       .  A
C558        C570   1.420   1_556  A
C558        C566   1.392       .  A
C559        C573   1.414       .  A
C559        C567   1.381       .  A
C560        C568   1.383       .  A
C560        C571   1.419       .  A
C561        C569   1.390       .  A
C561        C572   1.418       .  A
C562        C563   1.376       .  A
C562        H574   1.082       .  S
C563        H575   1.082       .  S
C564        C565   1.375       .  A
C564        H576   1.082       .  S
C565        H577   1.082       .  S
C566        C567   1.372       .  A
C566        H578   1.082       .  S
C567        H579   1.082       .  S
C568        C569   1.376       .  A
C568        H580   1.082       .  S
C569        H581   1.082       .  S
C570       C2311   1.468       .  S
C571       C2258   1.519       .  S
C572       C2278   1.468       .  S
C573       C2268   1.512       .  S
Zn584       O588   1.925       .  S
Zn584       O589   1.958       .  S
Zn584       O593   1.982       .  S
Zn584       O600   1.918       .  S
Zn585       O588   1.925   1_556  S
Zn585       O590   1.975       .  S
Zn585       O592   1.997       .  S
Zn585       O596   2.010       .  S
Zn586       O588   1.920   1_556  S
Zn586       O591   1.983       .  S
Zn586       O594   1.945       .  S
Zn586       O597   1.954       .  S
Zn587       O588   1.949       .  S
Zn587       O595   2.073       .  S
Zn587       O598   2.048       .  S
Zn587       O599   2.032       .  S
O589        C601   1.265   1_554  A
O590        C602   1.271       .  A
O591        C603   1.267   1_556  A
O592        C601   1.268       .  A
O593        C603   1.265       .  A
O594        C602   1.265       .  A
O595        C604   1.281       .  A
O596        C605   1.271       .  A
O597        C604   1.267   1_556  A
O598        C605   1.278   1_554  A
O599        C606   1.277       .  A
O600        C606   1.264       .  A
C601       C2281   1.471       .  S
C602       C2231   1.443       .  S
C603       C2248   1.475       .  S
C604       C2861   1.470       .  S
C605       C2821   1.498       .  S
C606       C2238   1.469       .  S
N607        C612   1.364       .  A
N607        C611   1.351       .  A
N607        H639   1.039       .  S
N608        C615   1.352       .  A
N608        C616   1.362       .  A
N609        C614   1.350       .  A
N609        C613   1.361       .  A
N609        H640   1.039       .  S
N610        C617   1.359       .  A
N610        C618   1.349       .  A
C611        C619   1.391       .  A
C611        C627   1.425       .  A
C612        C628   1.424       .  A
C612        C620   1.383       .  A
C613        C621   1.383       .  A
C613        C630   1.419       .  A
C614        C629   1.420   1_554  A
C614        C622   1.392       .  A
C615        C627   1.426   1_554  A
C615        C623   1.391       .  A
C616        C630   1.422       .  A
C616        C624   1.382       .  A
C617        C625   1.383       .  A
C617        C628   1.419       .  A
C618        C626   1.389       .  A
C618        C629   1.419       .  A
C619        C620   1.380       .  A
C619        H631   1.082       .  S
C620        H632   1.082       .  S
C621        C622   1.375       .  A
C621        H633   1.082       .  S
C622        H634   1.082       .  S
C623        C624   1.377       .  A
C623        H635   1.082       .  S
C624        H636   1.082       .  S
C625        C626   1.375       .  A
C625        H637   1.082       .  S
C626        H638   1.082       .  S
C627       C2398   1.487       .  S
C628       C2218   1.522       .  S
C629       C2251   1.475       .  S
C630       C2208   1.524       .  S
Zn641       O645   1.971       .  S
Zn641       O646   1.996       .  S
Zn641       O650   2.102       .  S
Zn641       O657   2.009       .  S
Zn642       O645   1.991       .  S
Zn642       O647   2.081       .  S
Zn642       O649   2.037       .  S
Zn642       O653   2.119       .  S
Zn643       O645   1.950       .  S
Zn643       O648   2.077       .  S
Zn643       O651   1.964       .  S
Zn643       O654   1.987       .  S
Zn644       O645   1.971       .  S
Zn644       O652   1.998       .  S
Zn644       O655   2.082       .  S
Zn644       O656   2.012       .  S
O646        C658   1.275       .  A
O647        C659   1.282       .  A
O648        C660   1.276       .  A
O649        C658   1.280       .  A
O650        C660   1.279       .  A
O651        C659   1.270       .  A
O652        C661   1.272       .  A
O653        C662   1.284       .  A
O654        C661   1.272       .  A
O655        C662   1.278       .  A
O656        C663   1.274       .  A
O657        C663   1.274       .  A
C658       C2188   1.478       .  S
C659       C2168   1.495       .  S
C660       C2328   1.525       .  S
C661       C2178   1.454       .  S
C662       C2158   1.535       .  S
C663       C2198   1.482       .  S
Zn664       O668   2.029       .  S
Zn664       O669   2.254       .  S
Zn664       O673   2.033       .  S
Zn664       O680   2.152       .  S
Zn665       O668   2.011       .  S
Zn665       O670   2.059       .  S
Zn665       O672   2.170       .  S
Zn665       O676   2.006       .  S
Zn666       O668   2.019       .  S
Zn666       O671   2.018       .  S
Zn666       O674   2.093       .  S
Zn666       O677   2.155       .  S
Zn667       O668   2.024       .  S
Zn667       O675   2.154       .  S
Zn667       O678   1.995       .  S
Zn667       O679   2.086       .  S
O669        C681   1.299       .  A
O670        C682   1.277       .  A
O671        C683   1.281       .  A
O672        C681   1.287       .  A
O673        C683   1.283       .  A
O674        C682   1.282       .  A
O675        C684   1.283       .  A
O676        C685   1.280       .  A
O677        C684   1.283       .  A
O678        C685   1.277       .  A
O679        C686   1.281       .  A
O680        C686   1.293       .  A
C681       C2128   1.597       .  S
C682       C2271   1.510       .  S
C683       C2148   1.475       .  S
C684       C2491   1.566       .  S
C685       C2138   1.458       .  S
C686       C2118   1.540       .  S
Zn687       O691   1.978       .  S
Zn687       O692   2.041       .  S
Zn687       O696   2.022       .  S
Zn687       O703   2.093       .  S
Zn688       O691   1.964       .  S
Zn688       O693   2.080       .  S
Zn688       O695   2.004       .  S
Zn688       O699   1.989       .  S
Zn689       O691   1.953       .  S
Zn689       O694   1.971       .  S
Zn689       O697   2.066       .  S
Zn689       O700   1.991       .  S
Zn690       O691   1.986       .  S
Zn690       O698   2.071       .  S
Zn690       O701   2.015       .  S
Zn690       O702   2.115       .  S
O692        C704   1.276       .  A
O693        C705   1.276       .  A
O694        C706   1.273       .  A
O695        C704   1.273       .  A
O696        C706   1.275       .  A
O697        C705   1.275       .  A
O698        C707   1.280       .  A
O699        C708   1.274       .  A
O700        C707   1.272       .  A
O701        C708   1.276       .  A
O702        C709   1.284       .  A
O703        C709   1.281       .  A
C704       C2108   1.491       .  S
C705       C2221   1.521       .  S
C706       C2088   1.476       .  S
C707       C2078   1.497       .  S
C708       C2098   1.460       .  S
C709       C2068   1.519       .  S
Zn710       O714   2.016       .  S
Zn710       O715   2.013       .  S
Zn710       O719   2.109       .  S
Zn710       O726   2.154       .  S
Zn711       O714   2.011       .  S
Zn711       O716   2.140       .  S
Zn711       O718   1.999       .  S
Zn711       O722   2.077       .  S
Zn712       O714   1.999       .  S
Zn712       O717   2.053       .  S
Zn712       O720   2.125       .  S
Zn712       O723   1.975       .  S
Zn713       O714   2.023       .  S
Zn713       O721   2.042       .  S
Zn713       O724   2.145       .  S
Zn713       O725   2.189       .  S
O715        C727   1.280       .  A
O716        C728   1.283       .  A
O717        C729   1.275       .  A
O718        C727   1.279       .  A
O719        C729   1.284       .  A
O720        C728   1.280       .  A
O721        C730   1.282       .  A
O722        C731   1.279       .  A
O723        C730   1.275       .  A
O724        C731   1.289       .  A
O725        C732   1.292       .  A
O726        C732   1.286       .  A
C727       C2038   1.465       .  S
C728       C2058   1.546       .  S
C729       C2211   1.525       .  S
C730       C2048   1.454       .  S
C731       C2018   1.521       .  S
C732       C2031   1.570       .  S
Zn733       O737   1.991       .  S
Zn733       O738   2.029       .  S
Zn733       O742   2.113       .  S
Zn733       O749   2.123       .  S
Zn734       O737   1.971       .  S
Zn734       O739   2.090       .  S
Zn734       O741   1.977       .  S
Zn734       O745   2.029       .  S
Zn735       O737   1.960       .  S
Zn735       O740   2.008       .  S
Zn735       O743   2.057       .  S
Zn735       O746   1.970       .  S
Zn736       O737   1.989       .  S
Zn736       O744   1.994       .  S
Zn736       O747   2.083       .  S
Zn736       O748   2.111       .  S
O738        C750   1.279       .  A
O739        C751   1.277       .  A
O740        C752   1.273       .  A
O741        C750   1.275       .  A
O742        C752   1.285       .  A
O743        C751   1.273       .  A
O744        C753   1.275       .  A
O745        C754   1.275       .  A
O746        C753   1.273       .  A
O747        C754   1.280       .  A
O748        C755   1.283       .  A
O749        C755   1.286       .  A
C750       C2001   1.473       .  S
C751       C2411   1.514       .  S
C752       C1988   1.505       .  S
C753       C2008   1.449       .  S
C754       C2611   1.511       .  S
C755       C1978   1.543       .  S
Zn756       O760   1.997       .  S
Zn756       O761   1.993       .  S
Zn756       O765   2.117       .  S
Zn756       O772   2.062       .  S
Zn757       O760   2.023       .  S
Zn757       O762   2.140       .  S
Zn757       O764   2.038       .  S
Zn757       O768   2.194       .  S
Zn758       O760   2.015       .  S
Zn758       O763   2.146       .  S
Zn758       O766   2.076       .  S
Zn758       O769   2.005       .  S
Zn759       O760   2.011       .  S
Zn759       O767   2.030       .  S
Zn759       O770   2.150       .  S
Zn759       O771   2.086       .  S
O761        C773   1.277       .  A
O762        C774   1.289       .  A
O763        C775   1.284       .  A
O764        C773   1.281       .  A
O765        C775   1.280       .  A
O766        C774   1.281       .  A
O767        C776   1.281       .  A
O768        C777   1.292       .  A
O769        C776   1.279       .  A
O770        C777   1.285       .  A
O771        C778   1.280       .  A
O772        C778   1.277       .  A
C773       C1951   1.467       .  S
C774       C1928   1.533       .  S
C775       C1968   1.555       .  S
C776       C1958   1.483       .  S
C777       C1941   1.560       .  S
C778       C2321   1.509       .  S
Zn779       O783   1.959       .  S
Zn779       O784   2.048       .  S
Zn779       O788   1.947       .  S
Zn779       O795   2.010       .  S
Zn780       O783   1.969       .  S
Zn780       O785   2.027       .  S
Zn780       O787   2.094       .  S
Zn780       O791   1.986       .  S
Zn781       O783   1.994       .  S
Zn781       O786   2.030       .  S
Zn781       O789   2.102       .  S
Zn781       O792   2.126       .  S
Zn782       O783   1.993       .  S
Zn782       O790   2.096       .  S
Zn782       O793   2.006       .  S
Zn782       O794   2.078       .  S
O784        C796   1.273       .  A
O785        C797   1.274       .  A
O786        C798   1.278       .  A
O787        C796   1.277       .  A
O788        C798   1.270       .  A
O789        C797   1.283       .  A
O790        C799   1.282       .  A
O791        C800   1.276       .  A
O792        C799   1.285       .  A
O793        C800   1.276       .  A
O794        C801   1.280       .  A
O795        C801   1.271       .  A
C796       C2261   1.520       .  S
C797       C1898   1.498       .  S
C798       C1911   1.462       .  S
C799       C1888   1.541       .  S
C800       C1921   1.463       .  S
C801       C2601   1.491       .  S
N802        C807   1.354       .  A
N802        C806   1.351       .  A
N802        H834   1.037       .  S
N803        C810   1.351       .  A
N803        C811   1.352       .  A
N804        C809   1.353       .  A
N804        C808   1.355       .  A
N804        H835   1.033       .  S
N805        C812   1.351       .  A
N805        C813   1.351       .  A
C806        C814   1.386       .  A
C806        C822   1.412       .  A
C807        C823   1.416   1_565  A
C807        C815   1.388       .  A
C808        C816   1.388       .  A
C808        C825   1.422       .  A
C809        C824   1.419       .  A
C809        C817   1.386       .  A
C810        C822   1.414       .  A
C810        C818   1.386       .  A
C811        C825   1.418   1_565  A
C811        C819   1.387       .  A
C812        C820   1.385       .  A
C812        C823   1.413       .  A
C813        C821   1.388       .  A
C813        C824   1.418       .  A
C814        C815   1.374       .  A
C814        H826   1.082       .  S
C815        H827   1.082       .  S
C816        C817   1.378       .  A
C816        H828   1.082       .  S
C817        H829   1.082       .  S
C818        C819   1.372       .  A
C818        H830   1.082       .  S
C819        H831   1.082       .  S
C820        C821   1.373       .  A
C820        H832   1.082       .  S
C821        H833   1.082       .  S
C822       C2201   1.481       .  S
C823       C1878   1.487       .  S
C824       C2111   1.488       .  S
C825       C1868   1.490       .  S
Zn836       O840   1.983   1_545  S
Zn836       O841   2.127       .  S
Zn836       O845   2.043       .  S
Zn836       O852   2.015       .  S
Zn837       O840   1.983       .  S
Zn837       O842   1.984       .  S
Zn837       O844   2.086       .  S
Zn837       O848   2.043       .  S
Zn838       O840   1.974       .  S
Zn838       O843   2.018       .  S
Zn838       O846   1.997       .  S
Zn838       O849   2.110       .  S
Zn839       O840   1.959   1_545  S
Zn839       O847   2.053       .  S
Zn839       O850   2.010       .  S
Zn839       O851   1.959       .  S
O841        C853   1.284       .  A
O842        C854   1.273       .  A
O843        C855   1.275       .  A
O844        C853   1.279   1_565  A
O845        C855   1.276   1_545  A
O846        C854   1.277       .  A
O847        C856   1.272   1_545  A
O848        C857   1.276       .  A
O849        C856   1.279       .  A
O850        C857   1.272   1_545  A
O851        C858   1.271       .  A
O852        C858   1.277       .  A
C853       C2871   1.539       .  S
C854       C1838   1.455       .  S
C855       C2911   1.500       .  S
C856       C1858   1.519       .  S
C857       C1881   1.478       .  S
C858       C1851   1.448       .  S
N859        C864   1.361       .  A
N859        C863   1.346       .  A
N859        H891   1.037       .  S
N860        C867   1.350       .  A
N860        C868   1.358       .  A
N861        C866   1.350       .  A
N861        C865   1.363       .  A
N861        H892   1.037       .  S
N862        C869   1.357       .  A
N862        C870   1.348       .  A
C863        C871   1.390       .  A
C863        C879   1.417       .  A
C864        C880   1.418   1_545  A
C864        C872   1.384       .  A
C865        C873   1.384       .  A
C865        C882   1.423       .  A
C866        C881   1.424       .  A
C866        C874   1.391       .  A
C867        C879   1.418       .  A
C867        C875   1.388       .  A
C868        C882   1.419   1_545  A
C868        C876   1.384       .  A
C869        C877   1.383       .  A
C869        C880   1.416       .  A
C870        C878   1.391       .  A
C870        C881   1.419       .  A
C871        C872   1.377       .  A
C871        H883   1.082       .  S
C872        H884   1.082       .  S
C873        C874   1.377       .  A
C873        H885   1.082       .  S
C874        H886   1.082       .  S
C875        C876   1.373       .  A
C875        H887   1.082       .  S
C876        H888   1.082       .  S
C877        C878   1.374       .  A
C877        H889   1.082       .  S
C878        H890   1.082       .  S
C879       C1808   1.471       .  S
C880       C1828   1.509   1_565  S
C881       C1818   1.475       .  S
C882       C1861   1.516       .  S
Zn893       O897   1.973   1_545  S
Zn893       O898   2.085       .  S
Zn893       O902   2.018       .  S
Zn893       O909   2.090       .  S
Zn894       O897   1.986       .  S
Zn894       O899   2.071       .  S
Zn894       O901   2.107       .  S
Zn894       O905   2.033       .  S
Zn895       O897   1.960   1_545  S
Zn895       O900   1.958       .  S
Zn895       O903   2.004       .  S
Zn895       O906   2.048       .  S
Zn896       O897   1.949       .  S
Zn896       O904   2.046       .  S
Zn896       O907   1.965       .  S
Zn896       O908   2.004       .  S
O898        C910   1.280   1_545  A
O899        C911   1.279       .  A
O900        C912   1.271       .  A
O901        C910   1.284       .  A
O902        C912   1.276       .  A
O903        C911   1.271   1_545  A
O904        C913   1.273   1_565  A
O905        C914   1.279       .  A
O906        C913   1.272       .  A
O907        C914   1.270       .  A
O908        C915   1.271       .  A
O909        C915   1.283   1_545  A
C910       C2878   1.532       .  S
C911       C1798   1.489       .  S
C912       C1778   1.473       .  S
C913       C1831   1.508       .  S
C914       C1788   1.468       .  S
C915       C2931   1.500       .  S
N916        C921   1.357       .  A
N916        C920   1.374       .  A
N916        H948   1.037       .  S
N917        C924   1.367       .  A
N917        C925   1.355       .  A
N918        C923   1.372       .  A
N918        C922   1.354       .  A
N918        H949   1.037       .  S
N919        C926   1.354       .  A
N919        C927   1.368       .  A
C920        C928   1.383       .  A
C920        C936   1.440       .  A
C921        C937   1.439       .  A
C921        C929   1.392       .  A
C922        C930   1.393       .  A
C922        C939   1.436   1_545  A
C923        C938   1.435       .  A
C923        C931   1.383       .  A
C924        C936   1.434       .  A
C924        C932   1.383       .  A
C925        C939   1.433       .  A
C925        C933   1.391       .  A
C926        C934   1.392       .  A
C926        C937   1.436   1_545  A
C927        C935   1.381       .  A
C927        C938   1.432       .  A
C928        C929   1.381       .  A
C928        H940   1.082       .  S
C929        H941   1.082       .  S
C930        C931   1.380       .  A
C930        H942   1.082       .  S
C931        H943   1.082       .  S
C932        C933   1.378       .  A
C932        H944   1.082       .  S
C933        H945   1.082       .  S
C934        C935   1.379       .  A
C934        H946   1.082       .  S
C935        H947   1.082       .  S
C936       C1971   1.558       .  S
C937       C1801   1.495       .  S
C938       C2061   1.551       .  S
C939       C1771   1.490       .  S
Zn950       O954   1.963       .  S
Zn950       O955   1.973       .  S
Zn950       O959   2.070       .  S
Zn950       O966   2.027       .  S
Zn951       O954   1.982       .  S
Zn951       O956   2.034       .  S
Zn951       O958   2.011       .  S
Zn951       O962   2.094       .  S
Zn952       O954   1.964   1_545  S
Zn952       O957   2.084       .  S
Zn952       O960   2.000       .  S
Zn952       O963   1.980       .  S
Zn953       O954   1.985   1_545  S
Zn953       O961   1.992       .  S
Zn953       O964   2.106       .  S
Zn953       O965   2.080       .  S
O955        C967   1.272       .  A
O956        C968   1.273       .  A
O957        C969   1.277       .  A
O958        C967   1.279       .  A
O959        C969   1.274   1_565  A
O960        C968   1.272   1_545  A
O961        C970   1.274       .  A
O962        C971   1.279       .  A
O963        C970   1.274       .  A
O964        C971   1.282   1_545  A
O965        C972   1.282       .  A
O966        C972   1.275   1_565  A
C967       C1738   1.469       .  S
C968       C1768   1.486       .  S
C969       C1758   1.522       .  S
C970       C1748   1.456       .  S
C971       C2801   1.517       .  S
C972       C2951   1.496       .  S
N973        C978   1.365       .  A
N973        C977   1.350       .  A
N973       H1005   1.040       .  S
N974        C981   1.347       .  A
N974        C982   1.358       .  A
N975        C980   1.347       .  A
N975        C979   1.364       .  A
N975       H1006   1.040       .  S
N976        C983   1.358       .  A
N976        C984   1.348       .  A
C977        C985   1.392       .  A
C977        C993   1.424       .  A
C978        C994   1.422       .  A
C978        C986   1.383       .  A
C979        C987   1.383       .  A
C979        C996   1.421       .  A
C980        C995   1.419       .  A
C980        C988   1.391       .  A
C981        C993   1.417       .  A
C981        C989   1.390       .  A
C982        C996   1.417   1_545  A
C982        C990   1.383       .  A
C983        C991   1.382       .  A
C983        C994   1.417   1_565  A
C984        C992   1.391       .  A
C984        C995   1.418       .  A
C985        C986   1.377       .  A
C985        H997   1.082       .  S
C986        H998   1.082       .  S
C987        C988   1.377       .  A
C987        H999   1.082       .  S
C988       H1000   1.082       .  S
C989        C990   1.376       .  A
C989       H1001   1.082       .  S
C990       H1002   1.082       .  S
C991        C992   1.375       .  A
C991       H1003   1.082       .  S
C992       H1004   1.082       .  S
C993       C1708   1.475       .  S
C994       C1761   1.522       .  S
C995       C1718   1.469       .  S
C996       C1728   1.521       .  S
Zn1007     O1011   1.973   1_545  S
Zn1007     O1012   2.075       .  S
Zn1007     O1016   2.032       .  S
Zn1007     O1023   1.989       .  S
Zn1008     O1011   1.987       .  S
Zn1008     O1013   1.994       .  S
Zn1008     O1015   2.115       .  S
Zn1008     O1019   2.075       .  S
Zn1009     O1011   1.956       .  S
Zn1009     O1014   2.015       .  S
Zn1009     O1017   1.968       .  S
Zn1009     O1020   2.083       .  S
Zn1010     O1011   1.951   1_545  S
Zn1010     O1018   2.061       .  S
Zn1010     O1021   2.023       .  S
Zn1010     O1022   1.969       .  S
O1012      C1024   1.277       .  A
O1013      C1025   1.273       .  A
O1014      C1026   1.272       .  A
O1015      C1024   1.283   1_565  A
O1016      C1026   1.274   1_545  A
O1017      C1025   1.275       .  A
O1018      C1027   1.273   1_545  A
O1019      C1028   1.281   1_565  A
O1020      C1027   1.277       .  A
O1021      C1028   1.274       .  A
O1022      C1029   1.273       .  A
O1023      C1029   1.275       .  A
C1024      C2791   1.532       .  S
C1025      C1698   1.463       .  S
C1026      C1871   1.483       .  S
C1027      C1731   1.522       .  S
C1028      C2891   1.486   1_545  S
C1029      C1688   1.455       .  S
Zn1030     O1034   1.902       .  S
Zn1030     O1035   2.001       .  S
Zn1030     O1039   2.045       .  S
Zn1030     O1046   2.021       .  S
Zn1031     O1034   1.894       .  S
Zn1031     O1036   1.947       .  S
Zn1031     O1038   1.901       .  S
Zn1031     O1042   1.981       .  S
Zn1032     O1034   1.901       .  S
Zn1032     O1037   2.036       .  S
Zn1032     O1040   2.015       .  S
Zn1032     O1043   1.985       .  S
Zn1033     O1034   1.914       .  S
Zn1033     O1041   1.960       .  S
Zn1033     O1044   2.049       .  S
Zn1033     O1045   2.017       .  S
O1035      C1047   1.277       .  A
O1036      C1048   1.264       .  A
O1037      C1049   1.280       .  A
O1038      C1047   1.264       .  A
O1039      C1049   1.278       .  A
O1040      C1048   1.271       .  A
O1041      C1050   1.273       .  A
O1042      C1051   1.265       .  A
O1043      C1050   1.276       .  A
O1044      C1051   1.275       .  A
O1045      C1052   1.274       .  A
O1046      C1052   1.276       .  A
C1047      C1668   1.446       .  S
C1048      C1721   1.463       .  S
C1049      C1658   1.495       .  S
C1050      C1678   1.458       .  S
C1051      C2551   1.482       .  S
C1052      C1648   1.490       .  S
Zn1053     O1057   1.915       .  S
Zn1053     O1058   1.986       .  S
Zn1053     O1062   1.985       .  S
Zn1053     O1069   1.911       .  S
Zn1054     O1057   1.921       .  S
Zn1054     O1059   1.974       .  S
Zn1054     O1061   2.038       .  S
Zn1054     O1065   2.016       .  S
Zn1055     O1057   1.897       .  S
Zn1055     O1060   1.996       .  S
Zn1055     O1063   1.922       .  S
Zn1055     O1066   1.971       .  S
Zn1056     O1057   1.920       .  S
Zn1056     O1064   2.040       .  S
Zn1056     O1067   2.009       .  S
Zn1056     O1068   1.965       .  S
O1058      C1070   1.267       .  A
O1059      C1071   1.274       .  A
O1060      C1072   1.266       .  A
O1061      C1070   1.274       .  A
O1062      C1072   1.268       .  A
O1063      C1071   1.266       .  A
O1064      C1073   1.275       .  A
O1065      C1074   1.274       .  A
O1066      C1073   1.267       .  A
O1067      C1074   1.272       .  A
O1068      C1075   1.273       .  A
O1069      C1075   1.264       .  A
C1070      C2658   1.485       .  S
C1071      C1641   1.435       .  S
C1072      C1711   1.482       .  S
C1073      C1618   1.461       .  S
C1074      C1608   1.480       .  S
C1075      C1631   1.434       .  S
Zn1076     O1080   1.922       .  S
Zn1076     O1081   1.980       .  S
Zn1076     O1085   1.983       .  S
Zn1076     O1092   1.916       .  S
Zn1077     O1080   1.929       .  S
Zn1077     O1082   1.939       .  S
Zn1077     O1084   1.985       .  S
Zn1077     O1088   1.996       .  S
Zn1078     O1080   1.943       .  S
Zn1078     O1083   2.037       .  S
Zn1078     O1086   1.984       .  S
Zn1078     O1089   2.033       .  S
Zn1079     O1080   1.935       .  S
Zn1079     O1087   2.005       .  S
Zn1079     O1090   2.039       .  S
Zn1079     O1091   1.979       .  S
O1081      C1093   1.264       .  A
O1082      C1094   1.267       .  A
O1083      C1095   1.273       .  A
O1084      C1093   1.267       .  A
O1085      C1095   1.266       .  A
O1086      C1094   1.275       .  A
O1087      C1096   1.271       .  A
O1088      C1097   1.270       .  A
O1089      C1096   1.276       .  A
O1090      C1097   1.275       .  A
O1091      C1098   1.271       .  A
O1092      C1098   1.264       .  A
C1093      C1821   1.478       .  S
C1094      C1588   1.455       .  S
C1095      C2541   1.474       .  S
C1096      C1571   1.491       .  S
C1097      C1578   1.470       .  S
C1098      C1598   1.440       .  S
Zn1099     O1103   1.935       .  S
Zn1099     O1104   1.994       .  S
Zn1099     O1108   2.016       .  S
Zn1099     O1115   1.951       .  S
Zn1100     O1103   1.932       .  S
Zn1100     O1105   1.967       .  S
Zn1100     O1107   2.000       .  S
Zn1100     O1111   2.010       .  S
Zn1101     O1103   1.920       .  S
Zn1101     O1106   1.980       .  S
Zn1101     O1109   1.916       .  S
Zn1101     O1112   1.963       .  S
Zn1102     O1103   1.929       .  S
Zn1102     O1110   2.013       .  S
Zn1102     O1113   2.022       .  S
Zn1102     O1114   1.954       .  S
O1104      C1116   1.270       .  A
O1105      C1117   1.270       .  A
O1106      C1118   1.267       .  A
O1107      C1116   1.272       .  A
O1108      C1118   1.269       .  A
O1109      C1117   1.264       .  A
O1110      C1119   1.272       .  A
O1111      C1120   1.270       .  A
O1112      C1119   1.263       .  A
O1113      C1120   1.274       .  A
O1114      C1121   1.271       .  A
O1115      C1121   1.267       .  A
C1116      C1541   1.483       .  S
C1117      C1548   1.435       .  S
C1118      C2671   1.478       .  S
C1119      C1811   1.473       .  S
C1120      C1528   1.491       .  S
C1121      C1558   1.461       .  S
Zn1122     O1126   1.898       .  S
Zn1122     O1127   2.006       .  S
Zn1122     O1131   1.949       .  S
Zn1122     O1138   1.986       .  S
Zn1123     O1126   1.892       .  S
Zn1123     O1128   1.990       .  S
Zn1123     O1130   1.956       .  S
Zn1123     O1134   1.998       .  S
Zn1124     O1126   1.896       .  S
Zn1124     O1129   1.965       .  S
Zn1124     O1132   1.999       .  S
Zn1124     O1135   1.993       .  S
Zn1125     O1126   1.874       .  S
Zn1125     O1133   1.955       .  S
Zn1125     O1136   1.922       .  S
Zn1125     O1137   1.994       .  S
O1127      C1139   1.270       .  A
O1128      C1140   1.274       .  A
O1129      C1141   1.272       .  A
O1130      C1139   1.269       .  A
O1131      C1141   1.269       .  A
O1132      C1140   1.272       .  A
O1133      C1142   1.268       .  A
O1134      C1143   1.271       .  A
O1135      C1142   1.271       .  A
O1136      C1143   1.267       .  A
O1137      C1144   1.268       .  A
O1138      C1144   1.270       .  A
C1139      C1918   1.470       .  S
C1140      C2041   1.466       .  S
C1141      C1561   1.449       .  S
C1142      C1781   1.459       .  S
C1143      C2241   1.456       .  S
C1144      C2701   1.467       .  S
Zn1145     O1149   1.928       .  S
Zn1145     O1150   1.958       .  S
Zn1145     O1154   1.980       .  S
Zn1145     O1161   1.993       .  S
Zn1146     O1149   1.933       .  S
Zn1146     O1151   1.998       .  S
Zn1146     O1153   1.941       .  S
Zn1146     O1157   2.008       .  S
Zn1147     O1149   1.909       .  S
Zn1147     O1152   1.991       .  S
Zn1147     O1155   1.981       .  S
Zn1147     O1158   1.934       .  S
Zn1148     O1149   1.935       .  S
Zn1148     O1156   1.984       .  S
Zn1148     O1159   1.968       .  S
Zn1148     O1160   1.989       .  S
O1150      C1162   1.268       .  A
O1151      C1163   1.270       .  A
O1152      C1164   1.268       .  A
O1153      C1162   1.267       .  A
O1154      C1164   1.269       .  A
O1155      C1163   1.267       .  A
O1156      C1165   1.269       .  A
O1157      C1166   1.270       .  A
O1158      C1165   1.269       .  A
O1159      C1166   1.268       .  A
O1160      C1167   1.268       .  A
O1161      C1167   1.268       .  A
C1162      C1638   1.445       .  S
C1163      C2688   1.468       .  S
C1164      C1751   1.459       .  S
C1165      C2381   1.438       .  S
C1166      C1998   1.458       .  S
C1167      C2051   1.479       .  S
Zn1168     O1172   1.902       .  S
Zn1168     O1173   1.980       .  S
Zn1168     O1177   1.986       .  S
Zn1168     O1184   1.943       .  S
Zn1169     O1172   1.912       .  S
Zn1169     O1174   1.959       .  S
Zn1169     O1176   1.970       .  S
Zn1169     O1180   1.976       .  S
Zn1170     O1172   1.898       .  S
Zn1170     O1175   1.999       .  S
Zn1170     O1178   1.946       .  S
Zn1170     O1181   1.955       .  S
Zn1171     O1172   1.923       .  S
Zn1171     O1179   1.990       .  S
Zn1171     O1182   1.979       .  S
Zn1171     O1183   1.960       .  S
O1173      C1185   1.268       .  A
O1174      C1186   1.266       .  A
O1175      C1187   1.270       .  A
O1176      C1185   1.270       .  A
O1177      C1187   1.271       .  A
O1178      C1186   1.270       .  A
O1179      C1188   1.271       .  A
O1180      C1189   1.268       .  A
O1181      C1188   1.265       .  A
O1182      C1189   1.267       .  A
O1183      C1190   1.269       .  A
O1184      C1190   1.266       .  A
C1185      C1741   1.473       .  S
C1186      C1671   1.442       .  S
C1187      C1948   1.473       .  S
C1188      C2011   1.463       .  S
C1189      C2578   1.465       .  S
C1190      C2351   1.436       .  S
Zn1191     O1195   1.921       .  S
Zn1191     O1196   1.972       .  S
Zn1191     O1200   1.957       .  S
Zn1191     O1207   1.985       .  S
Zn1192     O1195   1.917       .  S
Zn1192     O1197   2.022       .  S
Zn1192     O1199   2.008       .  S
Zn1192     O1203   1.958       .  S
Zn1193     O1195   1.894       .  S
Zn1193     O1198   1.915       .  S
Zn1193     O1201   1.954       .  S
Zn1193     O1204   1.976       .  S
Zn1194     O1195   1.919       .  S
Zn1194     O1202   1.982       .  S
Zn1194     O1205   1.937       .  S
Zn1194     O1206   1.973       .  S
O1196      C1208   1.269       .  A
O1197      C1209   1.274       .  A
O1198      C1210   1.264       .  A
O1199      C1208   1.270       .  A
O1200      C1210   1.269       .  A
O1201      C1209   1.265       .  A
O1202      C1211   1.267       .  A
O1203      C1212   1.271       .  A
O1204      C1211   1.267       .  A
O1205      C1212   1.265       .  A
O1206      C1213   1.266       .  A
O1207      C1213   1.268       .  A
C1208      C1961   1.479       .  S
C1209      C1791   1.465       .  S
C1210      C2291   1.435       .  S
C1211      C2568   1.471       .  S
C1212      C1601   1.432       .  S
C1213      C1908   1.463       .  S
Zn1214     O1218   1.912       .  S
Zn1214     O1219   1.971       .  S
Zn1214     O1223   1.989       .  S
Zn1214     O1230   1.936       .  S
Zn1215     O1218   1.944       .  S
Zn1215     O1220   1.981       .  S
Zn1215     O1222   1.997       .  S
Zn1215     O1226   2.026       .  S
Zn1216     O1218   1.917       .  S
Zn1216     O1221   1.963       .  S
Zn1216     O1224   1.940       .  S
Zn1216     O1227   1.982       .  S
Zn1217     O1218   1.930       .  S
Zn1217     O1225   1.990       .  S
Zn1217     O1228   1.958       .  S
Zn1217     O1229   1.981       .  S
O1219      C1231   1.266       .  A
O1220      C1232   1.273       .  A
O1221      C1233   1.266       .  A
O1222      C1231   1.269       .  A
O1223      C1233   1.267       .  A
O1224      C1232   1.266       .  A
O1225      C1234   1.269       .  A
O1226      C1235   1.273       .  A
O1227      C1234   1.267       .  A
O1228      C1235   1.266       .  A
O1229      C1236   1.269       .  A
O1230      C1236   1.268       .  A
C1231      C2518   1.455       .  S
C1232      C1591   1.446       .  S
C1233      C1841   1.457       .  S
C1234      C2181   1.463       .  S
C1235      C2151   1.463       .  S
C1236      C2301   1.444       .  S
Zn1237     O1241   1.920       .  S
Zn1237     O1242   1.996       .  S
Zn1237     O1246   1.948       .  S
Zn1237     O1253   1.955       .  S
Zn1238     O1241   1.921       .  S
Zn1238     O1243   1.983       .  S
Zn1238     O1245   1.947       .  S
Zn1238     O1249   1.944       .  S
Zn1239     O1241   1.906       .  S
Zn1239     O1244   1.924       .  S
Zn1239     O1247   1.984       .  S
Zn1239     O1250   1.929       .  S
Zn1240     O1241   1.940       .  S
Zn1240     O1248   2.014       .  S
Zn1240     O1251   1.964       .  S
Zn1240     O1252   2.027       .  S
O1242      C1254   1.269       .  A
O1243      C1255   1.267       .  A
O1244      C1256   1.264       .  A
O1245      C1254   1.263       .  A
O1246      C1256   1.268       .  A
O1247      C1255   1.266       .  A
O1248      C1257   1.271       .  A
O1249      C1258   1.265       .  A
O1250      C1257   1.263       .  A
O1251      C1258   1.271       .  A
O1252      C1259   1.273       .  A
O1253      C1259   1.267       .  A
C1254      C1848   1.468       .  S
C1255      C2101   1.464       .  S
C1256      C1551   1.443       .  S
C1257      C2141   1.453       .  S
C1258      C2228   1.434       .  S
C1259      C2628   1.465       .  S
Zn1260     O1264   1.875       .  S
Zn1260     O1265   1.972       .  S
Zn1260     O1269   1.979       .  S
Zn1260     O1276   1.922       .  S
Zn1261     O1264   1.903       .  S
Zn1261     O1266   1.941       .  S
Zn1261     O1268   1.996       .  S
Zn1261     O1272   1.998       .  S
Zn1262     O1264   1.891       .  S
Zn1262     O1267   1.985       .  S
Zn1262     O1270   1.955       .  S
Zn1262     O1273   1.976       .  S
Zn1263     O1264   1.896       .  S
Zn1263     O1271   1.972       .  S
Zn1263     O1274   1.965       .  S
Zn1263     O1275   1.954       .  S
O1265      C1277   1.267       .  A
O1266      C1278   1.266       .  A
O1267      C1279   1.271       .  A
O1268      C1277   1.272       .  A
O1269      C1279   1.269       .  A
O1270      C1278   1.270       .  A
O1271      C1280   1.270       .  A
O1272      C1281   1.271       .  A
O1273      C1280   1.267       .  A
O1274      C1281   1.269       .  A
O1275      C1282   1.266       .  A
O1276      C1282   1.268       .  A
C1277      C2471   1.463       .  S
C1278      C2391   1.445       .  S
C1279      C2091   1.462       .  S
C1280      C1691   1.454       .  S
C1281      C2638   1.457       .  S
C1282      C1628   1.440       .  S
Zn1283     O1287   1.914       .  S
Zn1283     O1288   1.993       .  S
Zn1283     O1292   2.028       .  S
Zn1283     O1299   1.990       .  S
Zn1284     O1287   1.900       .  S
Zn1284     O1289   1.928       .  S
Zn1284     O1291   1.966       .  S
Zn1284     O1295   1.959       .  S
Zn1285     O1287   1.915       .  S
Zn1285     O1290   1.983       .  S
Zn1285     O1293   1.978       .  S
Zn1285     O1296   1.960       .  S
Zn1286     O1287   1.918       .  S
Zn1286     O1294   2.003       .  S
Zn1286     O1297   1.989       .  S
Zn1286     O1298   1.947       .  S
O1288      C1300   1.272       .  A
O1289      C1301   1.268       .  A
O1290      C1302   1.270       .  A
O1291      C1300   1.266       .  A
O1292      C1302   1.274       .  A
O1293      C1301   1.269       .  A
O1294      C1303   1.270       .  A
O1295      C1304   1.264       .  A
O1296      C1303   1.267       .  A
O1297      C1304   1.269       .  A
O1298      C1305   1.268       .  A
O1299      C1305   1.273       .  A
C1300      C1701   1.455       .  S
C1301      C2361   1.444       .  S
C1302      C2191   1.465       .  S
C1303      C2461   1.461       .  S
C1304      C2508   1.461       .  S
C1305      C1681   1.462       .  S
C1306      C1308   1.557       .  S
C1306      C1310   1.562       .  S
C1306      C1309   1.521       .  S
C1306      C2448   1.647       .  S
C1307      C1311   1.560       .  S
C1307      C1313   1.555       .  S
C1307      C1312   1.534       .  S
C1307      C2131   1.650       .  S
C1308      C1316   1.385       .  A
C1308      C1311   1.444       .  A
C1309      C1320   1.353       .  A
C1309      C1312   1.414       .  A
C1310      C1324   1.384       .  A
C1310      C1313   1.442       .  A
C1311      C1314   1.382       .  A
C1312      C1318   1.363       .  A
C1313      C1321   1.385       .  A
C1314      N1315   1.353       .  A
C1314      H1327   1.079       .  S
N1315      C1316   1.351       .  A
N1315      C2171   1.445       .  S
C1316      H1317   1.080       .  S
C1318      N1319   1.350       .  A
C1318      H1328   1.081       .  S
N1319      C1320   1.340       .  A
N1319      C1518   1.399       .  S
C1320      H1326   1.082       .  S
C1321      N1322   1.350       .  A
C1321      H1323   1.082       .  S
N1322      C1324   1.352       .  A
N1322      C2081   1.439       .  S
C1324      H1325   1.080       .  S
Zn1329     O1333   1.886       .  S
Zn1329     O1334   1.979       .  S
Zn1329     O1338   1.924       .  S
Zn1329     O1345   1.958       .  S
Zn1330     O1333   1.896       .  S
Zn1330     O1335   1.950       .  S
Zn1330     O1337   1.993       .  S
Zn1330     O1341   1.949       .  S
Zn1331     O1333   1.901       .  S
Zn1331     O1336   1.930       .  S
Zn1331     O1339   1.986       .  S
Zn1331     O1342   1.991       .  S
Zn1332     O1333   1.875       .  S
Zn1332     O1340   1.967       .  S
Zn1332     O1343   1.910       .  S
Zn1332     O1344   1.967       .  S
O1334      C1346   1.269       .  A
O1335      C1347   1.268       .  A
O1336      C1348   1.265       .  A
O1337      C1346   1.269       .  A
O1338      C1348   1.267       .  A
O1339      C1347   1.269       .  A
O1340      C1349   1.266       .  A
O1341      C1350   1.265       .  A
O1342      C1349   1.268       .  A
O1343      C1350   1.267       .  A
O1344      C1351   1.267       .  A
O1345      C1351   1.266       .  A
C1346      C1501   1.465       .  S
C1347      C1488   1.459       .  S
C1348      C1508   1.441       .  S
C1349      C1478   1.451       .  S
C1350      C1521   1.447       .  S
C1351      C1471   1.448       .  S
C1352      C1354   1.558       .  S
C1352      C1356   1.566       .  S
C1352      C1355   1.531       .  S
C1352      C2028   1.629       .  S
C1353      C1357   1.565       .  S
C1353      C1359   1.560       .  S
C1353      C1358   1.518       .  S
C1353      C1938   1.625       .  S
C1354      C1362   1.394       .  A
C1354      C1357   1.432       .  A
C1355      C1366   1.361       .  A
C1355      C1358   1.408       .  A
C1356      C1370   1.390       .  A
C1356      C1359   1.445       .  A
C1357      C1360   1.395       .  A
C1358      C1364   1.353       .  A
C1359      C1367   1.398       .  A
C1360      N1361   1.356       .  A
C1360      H1373   1.081       .  S
N1361      C1362   1.353       .  A
N1361      C1901   1.453       .  S
C1362      H1363   1.081       .  S
C1364      N1365   1.341       .  A
C1364      H1374   1.082       .  S
N1365      C1366   1.348       .  A
N1365      C1511   1.394       .  S
C1366      H1372   1.082       .  S
C1367      N1368   1.352       .  A
C1367      H1369   1.082       .  S
N1368      C1370   1.350       .  A
N1368      C1991   1.448       .  S
C1370      H1371   1.079       .  S
C1375      C1377   1.533       .  S
C1375      C1379   1.549       .  S
C1375      C1378   1.548       .  S
C1375      C2441   1.584       .  S
C1376      C1380   1.537       .  S
C1376      C1382   1.556       .  S
C1376      C1381   1.530       .  S
C1376      C1981   1.588       .  S
C1377      C1385   1.378       .  A
C1377      C1380   1.406       .  A
C1378      C1389   1.380       .  A
C1378      C1381   1.405       .  A
C1379      C1393   1.382       .  A
C1379      C1382   1.434       .  A
C1380      C1383   1.376       .  A
C1381      C1387   1.366       .  A
C1382      C1390   1.386       .  A
C1383      N1384   1.353       .  A
C1383      H1396   1.082       .  S
N1384      C1385   1.355       .  A
N1384      C1611   1.431       .  S
C1385      H1386   1.083       .  S
C1387      N1388   1.352       .  A
C1387      H1397   1.083       .  S
N1388      C1389   1.357       .  A
N1388      C1498   1.433       .  S
C1389      H1395   1.078       .  S
C1390      N1391   1.352       .  A
C1390      H1392   1.080       .  S
N1391      C1393   1.349       .  A
N1391      C1651   1.440       .  S
C1393      H1394   1.083       .  S
C1398      C1400   1.537       .  S
C1398      C1402   1.554       .  S
C1398      C1401   1.530       .  S
C1398      C2161   1.582       .  S
C1399      C1403   1.538       .  S
C1399      C1405   1.554       .  S
C1399      C1404   1.545       .  S
C1399      C1931   1.581       .  S
C1400      C1408   1.379       .  A
C1400      C1403   1.405       .  A
C1401      C1412   1.369       .  A
C1401      C1404   1.413       .  A
C1402      C1416   1.389       .  A
C1402      C1405   1.428       .  A
C1403      C1406   1.385       .  A
C1404      C1410   1.380       .  A
C1405      C1413   1.388       .  A
C1406      N1407   1.358       .  A
C1406      H1419   1.082       .  S
N1407      C1408   1.354       .  A
N1407      C1661   1.444       .  S
C1408      H1409   1.082       .  S
C1410      N1411   1.352       .  A
C1410      H1420   1.074       .  S
N1411      C1412   1.349       .  A
N1411      C1491   1.436       .  S
C1412      H1418   1.082       .  S
C1413      N1414   1.351       .  A
C1413      H1415   1.083       .  S
N1414      C1416   1.351       .  A
N1414      C1581   1.441       .  S
C1416      H1417   1.081       .  S
C1421      C1423   1.544       .  S
C1421      C1425   1.556       .  S
C1421      C1424   1.530       .  S
C1421      C2121   1.588       .  S
C1422      C1426   1.539       .  S
C1422      C1428   1.542       .  S
C1422      C1427   1.537       .  S
C1422      C1891   1.589       .  S
C1423      C1431   1.379       .  A
C1423      C1426   1.418       .  A
C1424      C1435   1.367       .  A
C1424      C1427   1.401       .  A
C1425      C1439   1.390       .  A
C1425      C1428   1.430       .  A
C1426      C1429   1.380       .  A
C1427      C1433   1.375       .  A
C1428      C1436   1.374       .  A
C1429      N1430   1.356       .  A
C1429      H1442   1.083       .  S
N1430      C1431   1.350       .  A
N1430      C1568   1.436       .  S
C1431      H1432   1.081       .  S
C1433      N1434   1.353       .  A
C1433      H1443   1.080       .  S
N1434      C1435   1.351       .  A
N1434      C1481   1.426       .  S
C1435      H1441   1.083       .  S
C1436      N1437   1.346       .  A
C1436      H1438   1.083       .  S
N1437      C1439   1.355       .  A
N1437      C1538   1.440       .  S
C1439      H1440   1.078       .  S
C1444      C1446   1.544       .  S
C1444      C1448   1.541       .  S
C1444      C1447   1.530       .  S
C1444      C2071   1.587       .  S
C1445      C1449   1.556       .  S
C1445      C1451   1.552       .  S
C1445      C1450   1.529       .  S
C1445      C2021   1.589       .  S
C1446      C1454   1.381       .  A
C1446      C1449   1.425       .  A
C1447      C1458   1.365       .  A
C1447      C1450   1.401       .  A
C1448      C1462   1.372       .  A
C1448      C1451   1.422       .  A
C1449      C1452   1.383       .  A
C1450      C1456   1.369       .  A
C1451      C1459   1.389       .  A
C1452      N1453   1.353       .  A
C1452      H1465   1.081       .  S
N1453      C1454   1.350       .  A
N1453      C1531   1.437       .  S
C1454      H1455   1.082       .  S
C1456      N1457   1.348       .  A
C1456      H1466   1.082       .  S
N1457      C1458   1.347       .  A
N1457      C1468   1.408       .  S
C1458      H1464   1.082       .  S
C1459      N1460   1.354       .  A
C1459      H1461   1.081       .  S
N1460      C1462   1.346       .  A
N1460      C1621   1.433       .  S
C1462      H1463   1.082       .  S
C1467      C1468   1.396       .  A
C1467      C1472   1.389       .  A
C1467      H1474   1.083       .  S
C1468      C1469   1.397       .  A
C1469      C1470   1.387       .  A
C1469     Br1476   1.917       .  S
C1470      C1471   1.402       .  A
C1470      H1475   1.084       .  S
C1471      C1472   1.408       .  A
C1472     Br1473   1.921       .  S
C1477      C1478   1.401       .  A
C1477      C1482   1.395       .  A
C1477      H1484   1.084       .  S
C1478      C1479   1.403       .  A
C1479      C1480   1.385       .  A
C1479     Br1486   1.922       .  S
C1480      C1481   1.402       .  A
C1480      H1485   1.083       .  S
C1481      C1482   1.410       .  A
C1482     Br1483   1.919       .  S
C1487      C1488   1.401       .  A
C1487      C1492   1.394       .  A
C1487      H1494   1.084       .  S
C1488      C1489   1.405       .  A
C1489      C1490   1.383       .  A
C1489     Br1496   1.922       .  S
C1490      C1491   1.404       .  A
C1490      H1495   1.081       .  S
C1491      C1492   1.415       .  A
C1492     Br1493   1.921       .  S
C1497      C1498   1.404       .  A
C1497      C1502   1.387       .  A
C1497      H1504   1.082       .  S
C1498      C1499   1.410       .  A
C1499      C1500   1.397       .  A
C1499     Br1506   1.919       .  S
C1500      C1501   1.404       .  A
C1500      H1505   1.084       .  S
C1501      C1502   1.407       .  A
C1502     Br1503   1.923       .  S
C1507      C1508   1.407       .  A
C1507      C1512   1.379       .  A
C1507      H1514   1.083       .  S
C1508      C1509   1.411       .  A
C1509      C1510   1.377       .  A
C1509     Br1516   1.925       .  S
C1510      C1511   1.391       .  A
C1510      H1515   1.083       .  S
C1511      C1512   1.390       .  A
C1512     Br1513   1.914       .  S
C1517      C1518   1.395       .  A
C1517      C1522   1.383       .  A
C1517      H1524   1.084       .  S
C1518      C1519   1.392       .  A
C1519      C1520   1.375       .  A
C1519     Br1526   1.919       .  S
C1520      C1521   1.406       .  A
C1520      H1525   1.084       .  S
C1521      C1522   1.412       .  A
C1522     Br1523   1.923       .  S
C1527      C1528   1.409       .  A
C1527      C1532   1.398       .  A
C1527      H1534   1.083       .  S
C1528      C1529   1.420       .  A
C1529      C1530   1.400       .  A
C1529     Br1536   1.924       .  S
C1530      C1531   1.402       .  A
C1530      H1535   1.083       .  S
C1531      C1532   1.403       .  A
C1532     Br1533   1.916       .  S
C1537      C1538   1.405       .  A
C1537      C1542   1.393       .  A
C1537      H1544   1.083       .  S
C1538      C1539   1.412       .  A
C1539      C1540   1.398       .  A
C1539     Br1546   1.920       .  S
C1540      C1541   1.409       .  A
C1540      H1545   1.083       .  S
C1541      C1542   1.414       .  A
C1542     Br1543   1.925       .  S
C1547      C1548   1.397       .  A
C1547      C1552   1.384       .  A
C1547      H1554   1.084       .  S
C1548      C1549   1.403       .  A
C1549      C1550   1.380       .  A
C1549     Br1556   1.924       .  S
C1550      C1551   1.401       .  A
C1550      H1555   1.084       .  S
C1551      C1552   1.409       .  A
C1552     Br1553   1.923       .  S
C1557      C1558   1.407       .  A
C1557      C1562   1.385       .  A
C1557      H1564   1.083       .  S
C1558      C1559   1.414       .  A
C1559      C1560   1.383       .  A
C1559     Br1566   1.928       .  S
C1560      C1561   1.401       .  A
C1560      H1565   1.084       .  S
C1561      C1562   1.401       .  A
C1562     Br1563   1.921       .  S
C1567      C1568   1.399       .  A
C1567      C1572   1.396       .  A
C1567      H1574   1.083       .  S
C1568      C1569   1.405       .  A
C1569      C1570   1.402       .  A
C1569     Br1576   1.917       .  S
C1570      C1571   1.411       .  A
C1570      H1575   1.083       .  S
C1571      C1572   1.419       .  A
C1572     Br1573   1.923       .  S
C1577      C1578   1.398       .  A
C1577      C1582   1.400       .  A
C1577      H1584   1.084       .  S
C1578      C1579   1.408       .  A
C1579      C1580   1.401       .  A
C1579     Br1586   1.920       .  S
C1580      C1581   1.403       .  A
C1580      H1585   1.083       .  S
C1581      C1582   1.415       .  A
C1582     Br1583   1.913       .  S
C1587      C1588   1.405       .  A
C1587      C1592   1.388       .  A
C1587      H1594   1.084       .  S
C1588      C1589   1.412       .  A
C1589      C1590   1.383       .  A
C1589     Br1596   1.926       .  S
C1590      C1591   1.399       .  A
C1590      H1595   1.084       .  S
C1591      C1592   1.400       .  A
C1592     Br1593   1.919       .  S
C1597      C1598   1.396       .  A
C1597      C1602   1.382       .  A
C1597      H1604   1.084       .  S
C1598      C1599   1.411       .  A
C1599      C1600   1.386       .  A
C1599     Br1606   1.924       .  S
C1600      C1601   1.395       .  A
C1600      H1605   1.084       .  S
C1601      C1602   1.405       .  A
C1602     Br1603   1.924       .  S
C1607      C1608   1.407       .  A
C1607      C1612   1.400       .  A
C1607      H1614   1.083       .  S
C1608      C1609   1.415       .  A
C1609      C1610   1.397       .  A
C1609     Br1616   1.922       .  S
C1610      C1611   1.398       .  A
C1610      H1615   1.083       .  S
C1611      C1612   1.407       .  A
C1612     Br1613   1.918       .  S
C1617      C1618   1.401       .  A
C1617      C1622   1.400       .  A
C1617      H1624   1.084       .  S
C1618      C1619   1.405       .  A
C1619      C1620   1.394       .  A
C1619     Br1626   1.919       .  S
C1620      C1621   1.401       .  A
C1620      H1625   1.083       .  S
C1621      C1622   1.412       .  A
C1622     Br1623   1.919       .  S
C1627      C1628   1.403       .  A
C1627      C1632   1.380       .  A
C1627      H1634   1.084       .  S
C1628      C1629   1.406       .  A
C1629      C1630   1.381       .  A
C1629     Br1636   1.923       .  S
C1630      C1631   1.400       .  A
C1630      H1635   1.084       .  S
C1631      C1632   1.400       .  A
C1632     Br1633   1.923       .  S
C1637      C1638   1.403       .  A
C1637      C1642   1.386       .  A
C1637      H1644   1.084       .  S
C1638      C1639   1.406       .  A
C1639      C1640   1.382       .  A
C1639     Br1646   1.919       .  S
C1640      C1641   1.396       .  A
C1640      H1645   1.084       .  S
C1641      C1642   1.404       .  A
C1642     Br1643   1.924       .  S
C1647      C1648   1.408       .  A
C1647      C1652   1.398       .  A
C1647      H1654   1.083       .  S
C1648      C1649   1.417       .  A
C1649      C1650   1.400       .  A
C1649     Br1656   1.922       .  S
C1650      C1651   1.402       .  A
C1650      H1655   1.083       .  S
C1651      C1652   1.411       .  A
C1652     Br1653   1.921       .  S
C1657      C1658   1.408       .  A
C1657      C1662   1.400       .  A
C1657      H1664   1.083       .  S
C1658      C1659   1.418       .  A
C1659      C1660   1.406       .  A
C1659     Br1666   1.921       .  S
C1660      C1661   1.405       .  A
C1660      H1665   1.083       .  S
C1661      C1662   1.408       .  A
C1662     Br1663   1.918       .  S
C1667      C1668   1.406       .  A
C1667      C1672   1.383       .  A
C1667      H1674   1.084       .  S
C1668      C1669   1.401       .  A
C1669      C1670   1.383       .  A
C1669     Br1676   1.922       .  S
C1670      C1671   1.401       .  A
C1670      H1675   1.080       .  S
C1671      C1672   1.402       .  A
C1672     Br1673   1.922       .  S
C1677      C1678   1.401       .  A
C1677      C1682   1.385       .  A
C1677      H1684   1.084       .  S
C1678      C1679   1.408       .  A
C1679      C1680   1.389       .  A
C1679     Br1686   1.923       .  S
C1680      C1681   1.403       .  A
C1680      H1685   1.083       .  S
C1681      C1682   1.411       .  A
C1682     Br1683   1.925       .  S
C1687      C1688   1.400       .  A
C1687      C1692   1.391       .  A
C1687      H1694   1.084       .  S
C1688      C1689   1.410       .  A
C1689      C1690   1.386       .  A
C1689     Br1696   1.924       .  S
C1690      C1691   1.397       .  A
C1690      H1695   1.084       .  S
C1691      C1692   1.410       .  A
C1692     Br1693   1.919       .  S
C1697      C1698   1.404       .  A
C1697      C1702   1.385       .  A
C1697      H1704   1.084       .  S
C1698      C1699   1.412       .  A
C1699      C1700   1.396       .  A
C1699     Br1706   1.923       .  S
C1700      C1701   1.404       .  A
C1700      H1705   1.084       .  S
C1701      C1702   1.400       .  A
C1702     Br1703   1.920       .  S
C1707      C1708   1.398       .  A
C1707      C1712   1.395       .  A
C1707      H1714   1.084       .  S
C1708      C1709   1.404       .  A
C1709      C1710   1.392       .  A
C1709     Br1716   1.922       .  S
C1710      C1711   1.409       .  A
C1710      H1715   1.083       .  S
C1711      C1712   1.419       .  A
C1712     Br1713   1.923       .  S
C1717      C1718   1.401       .  A
C1717      C1722   1.395       .  A
C1717      H1724   1.084       .  S
C1718      C1719   1.402       .  A
C1719      C1720   1.390       .  A
C1719     Br1726   1.920       .  S
C1720      C1721   1.406       .  A
C1720      H1725   1.084       .  S
C1721      C1722   1.407       .  A
C1722     Br1723   1.920       .  S
C1727      C1728   1.406   1_545  A
C1727      C1732   1.411       .  A
C1727      H1734   1.084       .  S
C1728      C1729   1.415       .  A
C1729      C1730   1.415       .  A
C1729     Br1736   1.918       .  S
C1730      C1731   1.414       .  A
C1730      H1735   1.083       .  S
C1731      C1732   1.424   1_565  A
C1732     Br1733   1.921       .  S
C1737      C1738   1.404       .  A
C1737      C1742   1.393       .  A
C1737      H1744   1.084       .  S
C1738      C1739   1.412       .  A
C1739      C1740   1.389       .  A
C1739     Br1746   1.925       .  S
C1740      C1741   1.405       .  A
C1740      H1745   1.083       .  S
C1741      C1742   1.413       .  A
C1742     Br1743   1.924       .  S
C1747      C1748   1.401       .  A
C1747      C1752   1.390       .  A
C1747      H1754   1.084       .  S
C1748      C1749   1.408       .  A
C1749      C1750   1.394       .  A
C1749     Br1756   1.923       .  S
C1750      C1751   1.403       .  A
C1750      H1755   1.084       .  S
C1751      C1752   1.405       .  A
C1752     Br1753   1.920       .  S
C1757      C1758   1.414       .  A
C1757      C1762   1.415       .  A
C1757      H1764   1.083       .  S
C1758      C1759   1.422   1_545  A
C1759      C1760   1.413       .  A
C1759     Br1766   1.918       .  S
C1760      C1761   1.407   1_565  A
C1760      H1765   1.083       .  S
C1761      C1762   1.414       .  A
C1762     Br1763   1.917       .  S
C1767      C1768   1.408   1_545  A
C1767      C1772   1.396       .  A
C1767      H1774   1.083       .  S
C1768      C1769   1.415       .  A
C1769      C1770   1.403       .  A
C1769     Br1776   1.920       .  S
C1770      C1771   1.404       .  A
C1770      H1775   1.083       .  S
C1771      C1772   1.405   1_565  A
C1772     Br1773   1.918       .  S
C1777      C1778   1.411       .  A
C1777      C1782   1.391       .  A
C1777      H1784   1.083       .  S
C1778      C1779   1.411       .  A
C1779      C1780   1.389       .  A
C1779     Br1786   1.923       .  S
C1780      C1781   1.403       .  A
C1780      H1785   1.084       .  S
C1781      C1782   1.403       .  A
C1782     Br1783   1.922       .  S
C1787      C1788   1.400       .  A
C1787      C1792   1.395       .  A
C1787      H1794   1.084       .  S
C1788      C1789   1.415       .  A
C1789      C1790   1.392       .  A
C1789     Br1796   1.924       .  S
C1790      C1791   1.398       .  A
C1790      H1795   1.084       .  S
C1791      C1792   1.413       .  A
C1792     Br1793   1.922       .  S
C1797      C1798   1.409       .  A
C1797      C1802   1.401       .  A
C1797      H1804   1.084       .  S
C1798      C1799   1.412   1_565  A
C1799      C1800   1.405       .  A
C1799     Br1806   1.918       .  S
C1800      C1801   1.405   1_545  A
C1800      H1805   1.083       .  S
C1801      C1802   1.406       .  A
C1802     Br1803   1.918       .  S
C1807      C1808   1.396       .  A
C1807      C1812   1.394       .  A
C1807      H1814   1.084       .  S
C1808      C1809   1.404       .  A
C1809      C1810   1.392       .  A
C1809     Br1816   1.919       .  S
C1810      C1811   1.404       .  A
C1810      H1815   1.083       .  S
C1811      C1812   1.419       .  A
C1812     Br1813   1.924       .  S
C1817      C1818   1.397       .  A
C1817      C1822   1.391       .  A
C1817      H1824   1.084       .  S
C1818      C1819   1.403       .  A
C1819      C1820   1.395       .  A
C1819     Br1826   1.919       .  S
C1820      C1821   1.410       .  A
C1820      H1825   1.083       .  S
C1821      C1822   1.417       .  A
C1822     Br1823   1.924       .  S
C1827      C1828   1.405       .  A
C1827      C1832   1.410       .  A
C1827      H1834   1.083       .  S
C1828      C1829   1.409   1_545  A
C1829      C1830   1.406       .  A
C1829     Br1836   1.917       .  S
C1830      C1831   1.411   1_565  A
C1830      H1835   1.083       .  S
C1831      C1832   1.422       .  A
C1832     Br1833   1.921       .  S
C1837      C1838   1.399       .  A
C1837      C1842   1.389       .  A
C1837      H1844   1.084       .  S
C1838      C1839   1.408       .  A
C1839      C1840   1.393       .  A
C1839     Br1846   1.922       .  S
C1840      C1841   1.402       .  A
C1840      H1845   1.084       .  S
C1841      C1842   1.409       .  A
C1842     Br1843   1.922       .  S
C1847      C1848   1.407       .  A
C1847      C1852   1.394       .  A
C1847      H1854   1.083       .  S
C1848      C1849   1.416       .  A
C1849      C1850   1.386       .  A
C1849     Br1856   1.924       .  S
C1850      C1851   1.394       .  A
C1850      H1855   1.084       .  S
C1851      C1852   1.403       .  A
C1852     Br1853   1.920       .  S
C1857      C1858   1.414       .  A
C1857      C1862   1.419       .  A
C1857      H1864   1.083       .  S
C1858      C1859   1.420       .  A
C1859      C1860   1.407       .  A
C1859     Br1866   1.911       .  S
C1860      C1861   1.401       .  A
C1860      H1865   1.084       .  S
C1861      C1862   1.415       .  A
C1862     Br1863   1.917       .  S
C1867      C1868   1.400       .  A
C1867      C1872   1.398   1_545  A
C1867      H1874   1.084       .  S
C1868      C1869   1.409       .  A
C1869      C1870   1.403       .  A
C1869     Br1876   1.918       .  S
C1870      C1871   1.406   1_545  A
C1870      H1875   1.083       .  S
C1871      C1872   1.415       .  A
C1872     Br1873   1.922       .  S
C1877      C1878   1.399   1_565  A
C1877      C1882   1.397       .  A
C1877      H1884   1.084       .  S
C1878      C1879   1.409       .  A
C1879      C1880   1.402       .  A
C1879     Br1886   1.917       .  S
C1880      C1881   1.404   1_545  A
C1880      H1885   1.083       .  S
C1881      C1882   1.411       .  A
C1882     Br1883   1.913       .  S
C1887      C1888   1.416       .  A
C1887      C1892   1.423       .  A
C1887      H1894   1.083       .  S
C1888      C1889   1.422       .  A
C1889      C1890   1.419       .  A
C1889     Br1896   1.919       .  S
C1890      C1891   1.416       .  A
C1890      H1895   1.081       .  S
C1891      C1892   1.429       .  A
C1892     Br1893   1.922       .  S
C1897      C1898   1.407       .  A
C1897      C1902   1.415       .  A
C1897      H1904   1.083       .  S
C1898      C1899   1.414       .  A
C1899      C1900   1.407       .  A
C1899     Br1906   1.921       .  S
C1900      C1901   1.402       .  A
C1900      H1905   1.083       .  S
C1901      C1902   1.417       .  A
C1902     Br1903   1.919       .  S
C1907      C1908   1.405       .  A
C1907      C1912   1.395       .  A
C1907      H1914   1.084       .  S
C1908      C1909   1.407       .  A
C1909      C1910   1.389       .  A
C1909     Br1916   1.923       .  S
C1910      C1911   1.404       .  A
C1910      H1915   1.084       .  S
C1911      C1912   1.407       .  A
C1912     Br1913   1.921       .  S
C1917      C1918   1.404       .  A
C1917      C1922   1.386       .  A
C1917      H1924   1.084       .  S
C1918      C1919   1.412       .  A
C1919      C1920   1.397       .  A
C1919     Br1926   1.921       .  S
C1920      C1921   1.403       .  A
C1920      H1925   1.084       .  S
C1921      C1922   1.407       .  A
C1922     Br1923   1.924       .  S
C1927      C1928   1.415       .  A
C1927      C1932   1.419       .  A
C1927      H1934   1.083       .  S
C1928      C1929   1.418       .  A
C1929      C1930   1.419       .  A
C1929     Br1936   1.919       .  S
C1930      C1931   1.419       .  A
C1930      H1935   1.079       .  S
C1931      C1932   1.422       .  A
C1932     Br1933   1.920       .  S
C1937      C1938   1.426       .  A
C1937      C1942   1.439       .  A
C1937      H1944   1.081       .  S
C1938      C1939   1.444       .  A
C1939      C1940   1.433       .  A
C1939     Br1946   1.924       .  S
C1940      C1941   1.410       .  A
C1940      H1945   1.083       .  S
C1941      C1942   1.424       .  A
C1942     Br1943   1.916       .  S
C1947      C1948   1.404       .  A
C1947      C1952   1.391       .  A
C1947      H1954   1.084       .  S
C1948      C1949   1.413       .  A
C1949      C1950   1.398       .  A
C1949     Br1956   1.921       .  S
C1950      C1951   1.402       .  A
C1950      H1955   1.084       .  S
C1951      C1952   1.408       .  A
C1952     Br1953   1.923       .  S
C1957      C1958   1.409       .  A
C1957      C1962   1.397       .  A
C1957      H1964   1.083       .  S
C1958      C1959   1.412       .  A
C1959      C1960   1.393       .  A
C1959     Br1966   1.924       .  S
C1960      C1961   1.406       .  A
C1960      H1965   1.083       .  S
C1961      C1962   1.412       .  A
C1962     Br1963   1.923       .  S
C1967      C1968   1.419       .  A
C1967      C1972   1.428       .  A
C1967      H1974   1.083       .  S
C1968      C1969   1.430       .  A
C1969      C1970   1.427       .  A
C1969     Br1976   1.920       .  S
C1970      C1971   1.415       .  A
C1970      H1975   1.083       .  S
C1971      C1972   1.422       .  A
C1972     Br1973   1.917       .  S
C1977      C1978   1.412       .  A
C1977      C1982   1.420       .  A
C1977      H1984   1.083       .  S
C1978      C1979   1.425       .  A
C1979      C1980   1.423       .  A
C1979     Br1986   1.919       .  S
C1980      C1981   1.415       .  A
C1980      H1985   1.079       .  S
C1981      C1982   1.432       .  A
C1982     Br1983   1.925       .  S
C1987      C1988   1.412       .  A
C1987      C1992   1.402       .  A
C1987      H1994   1.081       .  S
C1988      C1989   1.415       .  A
C1989      C1990   1.416       .  A
C1989     Br1996   1.918       .  S
C1990      C1991   1.411       .  A
C1990      H1995   1.082       .  S
C1991      C1992   1.400       .  A
C1992     Br1993   1.914       .  S
C1997      C1998   1.402       .  A
C1997      C2002   1.394       .  A
C1997      H2004   1.084       .  S
C1998      C1999   1.401       .  A
C1999      C2000   1.393       .  A
C1999     Br2006   1.919       .  S
C2000      C2001   1.410       .  A
C2000      H2005   1.084       .  S
C2001      C2002   1.411       .  A
C2002     Br2003   1.921       .  S
C2007      C2008   1.394       .  A
C2007      C2012   1.388       .  A
C2007      H2014   1.084       .  S
C2008      C2009   1.406       .  A
C2009      C2010   1.390       .  A
C2009     Br2016   1.921       .  S
C2010      C2011   1.402       .  A
C2010      H2015   1.083       .  S
C2011      C2012   1.415       .  A
C2012     Br2013   1.919       .  S
C2017      C2018   1.405       .  A
C2017      C2022   1.421       .  A
C2017      H2024   1.083       .  S
C2018      C2019   1.413       .  A
C2019      C2020   1.420       .  A
C2019     Br2026   1.917       .  S
C2020      C2021   1.419       .  A
C2020      H2025   1.080       .  S
C2021      C2022   1.436       .  A
C2022     Br2023   1.925       .  S
C2027      C2028   1.425       .  A
C2027      C2032   1.436       .  A
C2027      H2034   1.080       .  S
C2028      C2029   1.445       .  A
C2029      C2030   1.435       .  A
C2029     Br2036   1.923       .  S
C2030      C2031   1.414       .  A
C2030      H2035   1.083       .  S
C2031      C2032   1.429       .  A
C2032     Br2033   1.919       .  S
C2037      C2038   1.404       .  A
C2037      C2042   1.394       .  A
C2037      H2044   1.084       .  S
C2038      C2039   1.409       .  A
C2039      C2040   1.391       .  A
C2039     Br2046   1.922       .  S
C2040      C2041   1.402       .  A
C2040      H2045   1.084       .  S
C2041      C2042   1.411       .  A
C2042     Br2043   1.922       .  S
C2047      C2048   1.397       .  A
C2047      C2052   1.393       .  A
C2047      H2054   1.084       .  S
C2048      C2049   1.401       .  A
C2049      C2050   1.396       .  A
C2049     Br2056   1.920       .  S
C2050      C2051   1.410       .  A
C2050      H2055   1.083       .  S
C2051      C2052   1.417       .  A
C2052     Br2053   1.924       .  S
C2057      C2058   1.417       .  A
C2057      C2062   1.428       .  A
C2057      H2064   1.083       .  S
C2058      C2059   1.423       .  A
C2059      C2060   1.427       .  A
C2059     Br2066   1.917       .  S
C2060      C2061   1.414       .  A
C2060      H2065   1.083       .  S
C2061      C2062   1.421       .  A
C2062     Br2063   1.916       .  S
C2067      C2068   1.404       .  A
C2067      C2072   1.419       .  A
C2067      H2074   1.083       .  S
C2068      C2069   1.412       .  A
C2069      C2070   1.418       .  A
C2069     Br2076   1.916       .  S
C2070      C2071   1.418       .  A
C2070      H2075   1.079       .  S
C2071      C2072   1.438       .  A
C2072     Br2073   1.928       .  S
C2077      C2078   1.414       .  A
C2077      C2082   1.398       .  A
C2077      H2084   1.083       .  S
C2078      C2079   1.416       .  A
C2079      C2080   1.404       .  A
C2079     Br2086   1.919       .  S
C2080      C2081   1.405       .  A
C2080      H2085   1.083       .  S
C2081      C2082   1.400       .  A
C2082     Br2083   1.916       .  S
C2087      C2088   1.407       .  A
C2087      C2092   1.387       .  A
C2087      H2094   1.083       .  S
C2088      C2089   1.413       .  A
C2089      C2090   1.398       .  A
C2089     Br2096   1.921       .  S
C2090      C2091   1.403       .  A
C2090      H2095   1.084       .  S
C2091      C2092   1.405       .  A
C2092     Br2093   1.925       .  S
C2097      C2098   1.401       .  A
C2097      C2102   1.393       .  A
C2097      H2104   1.084       .  S
C2098      C2099   1.406       .  A
C2099      C2100   1.394       .  A
C2099     Br2106   1.920       .  S
C2100      C2101   1.403       .  A
C2100      H2105   1.084       .  S
C2101      C2102   1.408       .  A
C2102     Br2103   1.920       .  S
C2107      C2108   1.411       .  A
C2107      C2112   1.397       .  A
C2107      H2114   1.083       .  S
C2108      C2109   1.417       .  A
C2109      C2110   1.402       .  A
C2109     Br2116   1.921       .  S
C2110      C2111   1.402       .  A
C2110      H2115   1.084       .  S
C2111      C2112   1.405       .  A
C2112     Br2113   1.920       .  S
C2117      C2118   1.409       .  A
C2117      C2122   1.419       .  A
C2117      H2124   1.083       .  S
C2118      C2119   1.427       .  A
C2119      C2120   1.423       .  A
C2119     Br2126   1.920       .  S
C2120      C2121   1.414       .  A
C2120      H2125   1.080       .  S
C2121      C2122   1.435       .  A
C2122     Br2123   1.927       .  S
C2127      C2128   1.422       .  A
C2127      C2132   1.449       .  A
C2127      H2134   1.083       .  S
C2128      C2129   1.437       .  A
C2129      C2130   1.444       .  A
C2129     Br2136   1.918       .  S
C2130      C2131   1.427       .  A
C2130      H2135   1.081       .  S
C2131      C2132   1.448       .  A
C2132     Br2133   1.921       .  S
C2137      C2138   1.397       .  A
C2137      C2142   1.387       .  A
C2137      H2144   1.084       .  S
C2138      C2139   1.413       .  A
C2139      C2140   1.395       .  A
C2139     Br2146   1.922       .  S
C2140      C2141   1.398       .  A
C2140      H2145   1.084       .  S
C2141      C2142   1.409       .  A
C2142     Br2143   1.924       .  S
C2147      C2148   1.403       .  A
C2147      C2152   1.394       .  A
C2147      H2154   1.083       .  S
C2148      C2149   1.416       .  A
C2149      C2150   1.396       .  A
C2149     Br2156   1.923       .  S
C2150      C2151   1.399       .  A
C2150      H2155   1.084       .  S
C2151      C2152   1.408       .  A
C2152     Br2153   1.922       .  S
C2157      C2158   1.410       .  A
C2157      C2162   1.417       .  A
C2157      H2164   1.083       .  S
C2158      C2159   1.425       .  A
C2159      C2160   1.420       .  A
C2159     Br2166   1.921       .  S
C2160      C2161   1.414       .  A
C2160      H2165   1.080       .  S
C2161      C2162   1.430       .  A
C2162     Br2163   1.924       .  S
C2167      C2168   1.413       .  A
C2167      C2172   1.394       .  A
C2167      H2174   1.083       .  S
C2168      C2169   1.414       .  A
C2169      C2170   1.404       .  A
C2169     Br2176   1.920       .  S
C2170      C2171   1.411       .  A
C2170      H2175   1.082       .  S
C2171      C2172   1.406       .  A
C2172     Br2173   1.920       .  S
C2177      C2178   1.398       .  A
C2177      C2182   1.392       .  A
C2177      H2184   1.084       .  S
C2178      C2179   1.404       .  A
C2179      C2180   1.394       .  A
C2179     Br2186   1.920       .  S
C2180      C2181   1.404       .  A
C2180      H2185   1.084       .  S
C2181      C2182   1.410       .  A
C2182     Br2183   1.922       .  S
C2187      C2188   1.404       .  A
C2187      C2192   1.397       .  A
C2187      H2194   1.083       .  S
C2188      C2189   1.417       .  A
C2189      C2190   1.396       .  A
C2189     Br2196   1.923       .  S
C2190      C2191   1.397       .  A
C2190      H2195   1.084       .  S
C2191      C2192   1.408       .  A
C2192     Br2193   1.920       .  S
C2197      C2198   1.408       .  A
C2197      C2202   1.396       .  A
C2197      H2204   1.083       .  S
C2198      C2199   1.416       .  A
C2199      C2200   1.399       .  A
C2199     Br2206   1.923       .  S
C2200      C2201   1.400       .  A
C2200      H2205   1.084       .  S
C2201      C2202   1.404       .  A
C2202     Br2203   1.919       .  S
C2207      C2208   1.406       .  A
C2207      C2212   1.414       .  A
C2207      H2214   1.083       .  S
C2208      C2209   1.416       .  A
C2209      C2210   1.414       .  A
C2209     Br2216   1.918       .  S
C2210      C2211   1.412       .  A
C2210      H2215   1.083       .  S
C2211      C2212   1.428       .  A
C2212     Br2213   1.923       .  S
C2217      C2218   1.409       .  A
C2217      C2222   1.415       .  A
C2217      H2224   1.083       .  S
C2218      C2219   1.413       .  A
C2219      C2220   1.412       .  A
C2219     Br2226   1.918       .  S
C2220      C2221   1.413       .  A
C2220      H2225   1.083       .  S
C2221      C2222   1.423       .  A
C2222     Br2223   1.920       .  S
C2227      C2228   1.395       .  A
C2227      C2232   1.383       .  A
C2227      H2234   1.084       .  S
C2228      C2229   1.404       .  A
C2229      C2230   1.388       .  A
C2229     Br2236   1.922       .  S
C2230      C2231   1.400       .  A
C2230      H2235   1.084       .  S
C2231      C2232   1.406       .  A
C2232     Br2233   1.922       .  S
C2237      C2238   1.412       .  A
C2237      C2242   1.389       .  A
C2237      H2244   1.083       .  S
C2238      C2239   1.408       .  A
C2239      C2240   1.389       .  A
C2239     Br2246   1.922       .  S
C2240      C2241   1.405       .  A
C2240      H2245   1.085       .  S
C2241      C2242   1.400       .  A
C2242     Br2243   1.921       .  S
C2247      C2248   1.407   1_556  A
C2247      C2252   1.392       .  A
C2247      H2254   1.083       .  S
C2248      C2249   1.417       .  A
C2249      C2250   1.394       .  A
C2249     Br2256   1.924       .  S
C2250      C2251   1.399   1_554  A
C2250      H2255   1.084       .  S
C2251      C2252   1.403       .  A
C2252     Br2253   1.919       .  S
C2257      C2258   1.408       .  A
C2257      C2262   1.415       .  A
C2257      H2264   1.083       .  S
C2258      C2259   1.412       .  A
C2259      C2260   1.410       .  A
C2259     Br2266   1.919       .  S
C2260      C2261   1.414       .  A
C2260      H2265   1.083       .  S
C2261      C2262   1.422       .  A
C2262     Br2263   1.919       .  S
C2267      C2268   1.405       .  A
C2267      C2272   1.411       .  A
C2267      H2274   1.083       .  S
C2268      C2269   1.411       .  A
C2269      C2270   1.412       .  A
C2269     Br2276   1.917       .  S
C2270      C2271   1.411       .  A
C2270      H2275   1.083       .  S
C2271      C2272   1.420       .  A
C2272     Br2273   1.919       .  S
C2277      C2278   1.397   1_556  A
C2277      C2282   1.394       .  A
C2277      H2284   1.084       .  S
C2278      C2279   1.401       .  A
C2279      C2280   1.390       .  A
C2279     Br2286   1.919       .  S
C2280      C2281   1.407   1_554  A
C2280      H2285   1.084       .  S
C2281      C2282   1.415       .  A
C2282     Br2283   1.921       .  S
C2287      C2288   1.396       .  A
C2287      C2292   1.379       .  A
C2287      H2294   1.084       .  S
C2288      C2289   1.405       .  A
C2289      C2290   1.382       .  A
C2289     Br2296   1.923       .  S
C2290      C2291   1.398       .  A
C2290      H2295   1.084       .  S
C2291      C2292   1.407       .  A
C2292     Br2293   1.925       .  S
C2297      C2298   1.400       .  A
C2297      C2302   1.387       .  A
C2297      H2304   1.084       .  S
C2298      C2299   1.399       .  A
C2299      C2300   1.386       .  A
C2299     Br2306   1.920       .  S
C2300      C2301   1.403       .  A
C2300      H2305   1.084       .  S
C2301      C2302   1.405       .  A
C2302     Br2303   1.921       .  S
C2307      C2308   1.404       .  A
C2307      C2312   1.388       .  A
C2307      H2314   1.083       .  S
C2308      C2309   1.416       .  A
C2309      C2310   1.394       .  A
C2309     Br2316   1.923       .  S
C2310      C2311   1.398       .  A
C2310      H2315   1.084       .  S
C2311      C2312   1.403       .  A
C2312     Br2313   1.920       .  S
C2317      C2318   1.406       .  A
C2317      C2322   1.412       .  A
C2317      H2324   1.083       .  S
C2318      C2319   1.413       .  A
C2319      C2320   1.413       .  A
C2319     Br2326   1.916       .  S
C2320      C2321   1.410       .  A
C2320      H2325   1.083       .  S
C2321      C2322   1.418       .  A
C2322     Br2323   1.919       .  S
C2327      C2328   1.414       .  A
C2327      C2332   1.417       .  A
C2327      H2334   1.083       .  S
C2328      C2329   1.424       .  A
C2329      C2330   1.415       .  A
C2329     Br2336   1.920       .  S
C2330      C2331   1.406       .  A
C2330      H2335   1.083       .  S
C2331      C2332   1.413       .  A
C2332     Br2333   1.917       .  S
C2337      C2338   1.402   1_554  A
C2337      C2342   1.401   1_554  A
C2337      H2344   1.083       .  S
C2338      C2339   1.402       .  A
C2339      C2340   1.390       .  A
C2339     Br2346   1.920       .  S
C2340      C2341   1.407       .  A
C2340      H2345   1.084       .  S
C2341      C2342   1.413       .  A
C2342     Br2343   1.919   1_556  S
C2347      C2348   1.398       .  A
C2347      C2352   1.383       .  A
C2347      H2354   1.084       .  S
C2348      C2349   1.408       .  A
C2349      C2350   1.385       .  A
C2349     Br2356   1.922       .  S
C2350      C2351   1.396       .  A
C2350      H2355   1.084       .  S
C2351      C2352   1.405       .  A
C2352     Br2353   1.922       .  S
C2357      C2358   1.404       .  A
C2357      C2362   1.385       .  A
C2357      H2364   1.084       .  S
C2358      C2359   1.405       .  A
C2359      C2360   1.384       .  A
C2359     Br2366   1.924       .  S
C2360      C2361   1.402       .  A
C2360      H2365   1.085       .  S
C2361      C2362   1.402       .  A
C2362     Br2363   1.921       .  S
C2367      C2368   1.403       .  A
C2367      C2372   1.394       .  A
C2367      H2374   1.084       .  S
C2368      C2369   1.414       .  A
C2369      C2370   1.398       .  A
C2369     Br2376   1.922   1_556  S
C2370      C2371   1.400       .  A
C2370      H2375   1.083   1_556  S
C2371      C2372   1.405       .  A
C2372     Br2373   1.919       .  S
C2377      C2378   1.403       .  A
C2377      C2382   1.391       .  A
C2377      H2384   1.084       .  S
C2378      C2379   1.409       .  A
C2379      C2380   1.382       .  A
C2379     Br2386   1.925       .  S
C2380      C2381   1.396       .  A
C2380      H2385   1.085       .  S
C2381      C2382   1.402       .  A
C2382     Br2383   1.919       .  S
C2387      C2388   1.398       .  A
C2387      C2392   1.386       .  A
C2387      H2394   1.084       .  S
C2388      C2389   1.399       .  A
C2389      C2390   1.383       .  A
C2389     Br2396   1.922       .  S
C2390      C2391   1.402       .  A
C2390      H2395   1.082       .  S
C2391      C2392   1.407       .  A
C2392     Br2393   1.923       .  S
C2397      C2398   1.400       .  A
C2397      C2402   1.397       .  A
C2397      H2404   1.084       .  S
C2398      C2399   1.407   1_556  A
C2399      C2400   1.399       .  A
C2399     Br2406   1.918       .  S
C2400      C2401   1.408   1_554  A
C2400      H2405   1.083       .  S
C2401      C2402   1.419       .  A
C2402     Br2403   1.923       .  S
C2407      C2408   1.405       .  A
C2407      C2412   1.411       .  A
C2407      H2414   1.083       .  S
C2408      C2409   1.413       .  A
C2409      C2410   1.414       .  A
C2409     Br2416   1.917       .  S
C2410      C2411   1.411       .  A
C2410      H2415   1.083       .  S
C2411      C2412   1.420       .  A
C2412     Br2413   1.918       .  S
C2417      C2418   1.401       .  A
C2417      C2422   1.399       .  A
C2417      H2424   1.083       .  S
C2418      C2419   1.404       .  A
C2419      C2420   1.392       .  A
C2419     Br2426   1.919       .  S
C2420      C2421   1.405       .  A
C2420      H2425   1.084       .  S
C2421      C2422   1.412       .  A
C2422     Br2423   1.920       .  S
C2427      C2428   1.403       .  A
C2427      C2432   1.392       .  A
C2427      H2434   1.084       .  S
C2428      C2429   1.413       .  A
C2429      C2430   1.396   1_556  A
C2429     Br2436   1.921   1_556  S
C2430      C2431   1.399   1_554  A
C2430      H2435   1.083       .  S
C2431      C2432   1.405       .  A
C2432     Br2433   1.919       .  S
C2437      C2438   1.415       .  A
C2437      C2442   1.421       .  A
C2437      H2444   1.083       .  S
C2438      C2439   1.422       .  A
C2439      C2440   1.421       .  A
C2439     Br2446   1.918       .  S
C2440      C2441   1.416       .  A
C2440      H2445   1.078       .  S
C2441      C2442   1.424       .  A
C2442     Br2443   1.920       .  S
C2447      C2448   1.427       .  A
C2447      C2452   1.444       .  A
C2447      H2454   1.079       .  S
C2448      C2449   1.447       .  A
C2449      C2450   1.443       .  A
C2449     Br2456   1.925       .  S
C2450      C2451   1.420       .  A
C2450      H2455   1.083       .  S
C2451      C2452   1.434       .  A
C2452     Br2453   1.918       .  S
C2457      C2458   1.407       .  A
C2457      C2462   1.396       .  A
C2457      H2464   1.083       .  S
C2458      C2459   1.410       .  A
C2459      C2460   1.390       .  A
C2459     Br2466   1.924       .  S
C2460      C2461   1.402       .  A
C2460      H2465   1.084       .  S
C2461      C2462   1.405       .  A
C2462     Br2463   1.921       .  S
C2467      C2468   1.399       .  A
C2467      C2472   1.393       .  A
C2467      H2474   1.084       .  S
C2468      C2469   1.408       .  A
C2469      C2470   1.393       .  A
C2469     Br2476   1.922       .  S
C2470      C2471   1.402       .  A
C2470      H2475   1.084       .  S
C2471      C2472   1.412       .  A
C2472     Br2473   1.922       .  S
C2477      C2478   1.408       .  A
C2477      C2482   1.412       .  A
C2477      H2484   1.083       .  S
C2478      C2479   1.418       .  A
C2479      C2480   1.411       .  A
C2479     Br2486   1.919       .  S
C2480      C2481   1.407       .  A
C2480      H2485   1.083       .  S
C2481      C2482   1.415       .  A
C2482     Br2483   1.917       .  S
C2487      C2488   1.416       .  A
C2487      C2492   1.432       .  A
C2487      H2494   1.083       .  S
C2488      C2489   1.424       .  A
C2489      C2490   1.433       .  A
C2489     Br2496   1.917       .  S
C2490      C2491   1.422       .  A
C2490      H2495   1.083       .  S
C2491      C2492   1.431       .  A
C2492     Br2493   1.918       .  S
C2497      C2498   1.417       .  A
C2497      C2502   1.434       .  A
C2497      H2504   1.083       .  S
C2498      C2499   1.426       .  A
C2499      C2500   1.436       .  A
C2499     Br2506   1.916       .  S
C2500      C2501   1.422       .  A
C2500      H2505   1.083       .  S
C2501      C2502   1.433       .  A
C2502     Br2503   1.918       .  S
C2507      C2508   1.401       .  A
C2507      C2512   1.389       .  A
C2507      H2514   1.084       .  S
C2508      C2509   1.410       .  A
C2509      C2510   1.393       .  A
C2509     Br2516   1.922       .  S
C2510      C2511   1.400       .  A
C2510      H2515   1.084       .  S
C2511      C2512   1.410       .  A
C2512     Br2513   1.924       .  S
C2517      C2518   1.400       .  A
C2517      C2522   1.392       .  A
C2517      H2524   1.084       .  S
C2518      C2519   1.403       .  A
C2519      C2520   1.393       .  A
C2519     Br2526   1.920       .  S
C2520      C2521   1.406       .  A
C2520      H2525   1.084       .  S
C2521      C2522   1.409       .  A
C2522     Br2523   1.922       .  S
C2527      C2528   1.414       .  A
C2527      C2532   1.431       .  A
C2527      H2534   1.083       .  S
C2528      C2529   1.423   1_655  A
C2529      C2530   1.431       .  A
C2529     Br2536   1.917       .  S
C2530      C2531   1.420   1_455  A
C2530      H2535   1.083       .  S
C2531      C2532   1.433       .  A
C2532     Br2533   1.919       .  S
C2537      C2538   1.400       .  A
C2537      C2542   1.397       .  A
C2537      H2544   1.084       .  S
C2538      C2539   1.408       .  A
C2539      C2540   1.401       .  A
C2539     Br2546   1.916       .  S
C2540      C2541   1.404       .  A
C2540      H2545   1.084       .  S
C2541      C2542   1.411       .  A
C2542     Br2543   1.920       .  S
C2547      C2548   1.402       .  A
C2547      C2552   1.400       .  A
C2547      H2554   1.084       .  S
C2548      C2549   1.409       .  A
C2549      C2550   1.399       .  A
C2549     Br2556   1.919       .  S
C2550      C2551   1.403       .  A
C2550      H2555   1.083       .  S
C2551      C2552   1.417       .  A
C2552     Br2553   1.924       .  S
C2557      C2558   1.415       .  A
C2557      C2562   1.413       .  A
C2557      H2564   1.083       .  S
C2558      C2559   1.425   1_455  A
C2559      C2560   1.408       .  A
C2559     Br2566   1.921       .  S
C2560      C2561   1.403   1_655  A
C2560      H2565   1.084       .  S
C2561      C2562   1.412       .  A
C2562     Br2563   1.918       .  S
C2567      C2568   1.406       .  A
C2567      C2572   1.396       .  A
C2567      H2574   1.083       .  S
C2568      C2569   1.409       .  A
C2569      C2570   1.388       .  A
C2569     Br2576   1.927       .  S
C2570      C2571   1.411       .  A
C2570      H2575   1.083       .  S
C2571      C2572   1.412       .  A
C2572     Br2573   1.921       .  S
C2577      C2578   1.405       .  A
C2577      C2582   1.394       .  A
C2577      H2584   1.084       .  S
C2578      C2579   1.410       .  A
C2579      C2580   1.389       .  A
C2579     Br2586   1.923       .  S
C2580      C2581   1.401       .  A
C2580      H2585   1.084       .  S
C2581      C2582   1.407       .  A
C2582     Br2583   1.921       .  S
C2587      C2588   1.407       .  A
C2587      C2592   1.412       .  A
C2587      H2594   1.083       .  S
C2588      C2589   1.409   1_655  A
C2589      C2590   1.408       .  A
C2589     Br2596   1.918       .  S
C2590      C2591   1.413   1_455  A
C2590      H2595   1.083       .  S
C2591      C2592   1.420       .  A
C2592     Br2593   1.920       .  S
C2597      C2598   1.407       .  A
C2597      C2602   1.408       .  A
C2597      H2604   1.083       .  S
C2598      C2599   1.409       .  A
C2599      C2600   1.403       .  A
C2599     Br2606   1.918       .  S
C2600      C2601   1.407       .  A
C2600      H2605   1.084       .  S
C2601      C2602   1.412       .  A
C2602     Br2603   1.918       .  S
C2607      C2608   1.406       .  A
C2607      C2612   1.411       .  A
C2607      H2614   1.083       .  S
C2608      C2609   1.408       .  A
C2609      C2610   1.405       .  A
C2609     Br2616   1.919       .  S
C2610      C2611   1.414       .  A
C2610      H2615   1.083       .  S
C2611      C2612   1.420       .  A
C2612     Br2613   1.919       .  S
C2617      C2618   1.414       .  A
C2617      C2622   1.431       .  A
C2617      H2624   1.083       .  S
C2618      C2619   1.422   1_455  A
C2619      C2620   1.432       .  A
C2619     Br2626   1.914       .  S
C2620      C2621   1.419   1_655  A
C2620      H2625   1.083       .  S
C2621      C2622   1.433       .  A
C2622     Br2623   1.921       .  S
C2627      C2628   1.405       .  A
C2627      C2632   1.392       .  A
C2627      H2634   1.084       .  S
C2628      C2629   1.407       .  A
C2629      C2630   1.396       .  A
C2629     Br2636   1.919       .  S
C2630      C2631   1.404       .  A
C2630      H2635   1.084       .  S
C2631      C2632   1.404       .  A
C2632     Br2633   1.921       .  S
C2637      C2638   1.397       .  A
C2637      C2642   1.390       .  A
C2637      H2644   1.084       .  S
C2638      C2639   1.404       .  A
C2639      C2640   1.395       .  A
C2639     Br2646   1.920       .  S
C2640      C2641   1.409       .  A
C2640      H2645   1.083       .  S
C2641      C2642   1.418       .  A
C2642     Br2643   1.927       .  S
C2647      C2648   1.420       .  A
C2647      C2652   1.431       .  A
C2647      H2654   1.083       .  S
C2648      C2649   1.429   1_655  A
C2649      C2650   1.428       .  A
C2649     Br2656   1.919       .  S
C2650      C2651   1.413   1_455  A
C2650      H2655   1.083       .  S
C2651      C2652   1.421       .  A
C2652     Br2653   1.916       .  S
C2657      C2658   1.406       .  A
C2657      C2662   1.398       .  A
C2657      H2664   1.083       .  S
C2658      C2659   1.418       .  A
C2659      C2660   1.400       .  A
C2659     Br2666   1.923       .  S
C2660      C2661   1.400       .  A
C2660      H2665   1.083       .  S
C2661      C2662   1.406       .  A
C2662     Br2663   1.918       .  S
C2667      C2668   1.400       .  A
C2667      C2672   1.398       .  A
C2667      H2674   1.084       .  S
C2668      C2669   1.403       .  A
C2669      C2670   1.393       .  A
C2669     Br2676   1.919       .  S
C2670      C2671   1.408       .  A
C2670      H2675   1.083       .  S
C2671      C2672   1.414       .  A
C2672     Br2673   1.921       .  S
C2677      C2678   1.407       .  A
C2677      C2682   1.415       .  A
C2677      H2684   1.083       .  S
C2678      C2679   1.418       .  A
C2679      C2680   1.416   1_655  A
C2679     Br2686   1.919   1_655  S
C2680      C2681   1.414   1_455  A
C2680      H2685   1.083       .  S
C2681      C2682   1.423       .  A
C2682     Br2683   1.919       .  S
C2687      C2688   1.405       .  A
C2687      C2692   1.395       .  A
C2687      H2694   1.084       .  S
C2688      C2689   1.409       .  A
C2689      C2690   1.390       .  A
C2689     Br2696   1.919       .  S
C2690      C2691   1.402       .  A
C2690      H2695   1.084       .  S
C2691      C2692   1.408       .  A
C2692     Br2693   1.921       .  S
C2697      C2698   1.402       .  A
C2697      C2702   1.399       .  A
C2697      H2704   1.084       .  S
C2698      C2699   1.407       .  A
C2699      C2700   1.390       .  A
C2699     Br2706   1.922       .  S
C2700      C2701   1.401       .  A
C2700      H2705   1.084       .  S
C2701      C2702   1.412       .  A
C2702     Br2703   1.922       .  S
C2707      C2708   1.416       .  A
C2707      C2712   1.430       .  A
C2707      H2714   1.083       .  S
C2708      C2709   1.422   1_455  A
C2709      C2710   1.431       .  A
C2709     Br2716   1.916       .  S
C2710      C2711   1.419   1_655  A
C2710      H2715   1.083       .  S
C2711      C2712   1.430       .  A
C2712     Br2713   1.919       .  S
C2717      C2718   1.407       .  A
C2717      C2722   1.415       .  A
C2717      H2724   1.083       .  S
C2718      C2719   1.414   1_655  A
C2719      C2720   1.412       .  A
C2719     Br2726   1.918       .  S
C2720      C2721   1.412       .  A
C2720      H2725   1.083       .  S
C2721      C2722   1.423   1_455  A
C2722     Br2723   1.920       .  S
C2727      C2728   1.400   1_554  A
C2727      C2732   1.400       .  A
C2727      H2734   1.083       .  S
C2728      C2729   1.405       .  A
C2729      C2730   1.400       .  A
C2729     Br2736   1.919       .  S
C2730      C2731   1.412       .  A
C2730      H2735   1.083       .  S
C2731      C2732   1.420   1_556  A
C2732     Br2733   1.923       .  S
C2737      C2738   1.397       .  A
C2737      C2742   1.401       .  A
C2737      H2744   1.083       .  S
C2738      C2739   1.408       .  A
C2739      C2740   1.403       .  A
C2739     Br2746   1.916       .  S
C2740      C2741   1.406       .  A
C2740      H2745   1.083       .  S
C2741      C2742   1.418       .  A
C2742     Br2743   1.923       .  S
C2747      C2748   1.415       .  A
C2747      C2752   1.422       .  A
C2747      H2754   1.079       .  S
C2748      C2749   1.432   1_455  A
C2749      C2750   1.423       .  A
C2749     Br2756   1.914       .  S
C2750      C2751   1.411   1_655  A
C2750      H2755   1.083       .  S
C2751      C2752   1.427       .  A
C2752     Br2753   1.921       .  S
C2757      C2758   1.421       .  A
C2757      C2762   1.428       .  A
C2757      H2764   1.080       .  S
C2758      C2759   1.435   1_455  A
C2759      C2760   1.429       .  A
C2759     Br2766   1.916       .  S
C2760      C2761   1.410   1_655  A
C2760      H2765   1.083       .  S
C2761      C2762   1.418       .  A
C2762     Br2763   1.916       .  S
C2767      C2768   1.410       .  A
C2767      C2772   1.396       .  A
C2767      H2774   1.083       .  S
C2768      C2769   1.420   1_554  A
C2769      C2770   1.401       .  A
C2769     Br2776   1.923       .  S
C2770      C2771   1.404   1_556  A
C2770      H2775   1.083       .  S
C2771      C2772   1.404       .  A
C2772     Br2773   1.918       .  S
C2777      C2778   1.400   1_554  A
C2777      C2782   1.398       .  A
C2777      H2784   1.083       .  S
C2778      C2779   1.402       .  A
C2779      C2780   1.401       .  A
C2779     Br2786   1.916       .  S
C2780      C2781   1.411       .  A
C2780      H2785   1.083       .  S
C2781      C2782   1.418   1_556  A
C2782     Br2783   1.923       .  S
C2787      C2788   1.414   1_545  A
C2787      C2792   1.416       .  A
C2787      H2794   1.079       .  S
C2788      C2789   1.430       .  A
C2789      C2790   1.419       .  A
C2789     Br2796   1.925       .  S
C2790      C2791   1.411   1_565  A
C2790      H2795   1.083       .  S
C2791      C2792   1.423       .  A
C2792     Br2793   1.921       .  S
C2797      C2798   1.418   1_545  A
C2797      C2802   1.418       .  A
C2797      H2804   1.080       .  S
C2798      C2799   1.431       .  A
C2799      C2800   1.418       .  A
C2799     Br2806   1.923       .  S
C2800      C2801   1.404       .  A
C2800      H2805   1.083       .  S
C2801      C2802   1.414   1_565  A
C2802     Br2803   1.918       .  S
C2807      C2808   1.402       .  A
C2807      C2812   1.399       .  A
C2807      H2814   1.081       .  S
C2808      C2809   1.404   1_556  A
C2809      C2810   1.401       .  A
C2809     Br2816   1.917       .  S
C2810      C2811   1.413   1_554  A
C2810      H2815   1.083       .  S
C2811      C2812   1.418       .  A
C2812     Br2813   1.922       .  S
C2817      C2818   1.399       .  A
C2817      C2822   1.401       .  A
C2817      H2824   1.083       .  S
C2818      C2819   1.410   1_556  A
C2819      C2820   1.403       .  A
C2819     Br2826   1.919       .  S
C2820      C2821   1.410   1_554  A
C2820      H2825   1.083       .  S
C2821      C2822   1.423       .  A
C2822     Br2823   1.923       .  S
C2827      C2828   1.419       .  A
C2827      C2832   1.422       .  A
C2827      H2834   1.079       .  S
C2828      C2829   1.436   1_455  A
C2829      C2830   1.423       .  A
C2829     Br2836   1.917       .  S
C2830      C2831   1.406   1_655  A
C2830      H2835   1.083       .  S
C2831      C2832   1.414       .  A
C2832     Br2833   1.917       .  S
C2837      C2838   1.418       .  A
C2837      C2842   1.425       .  A
C2837      H2844   1.078       .  S
C2838      C2839   1.438   1_455  A
C2839      C2840   1.420       .  A
C2839     Br2846   1.924       .  S
C2840      C2841   1.404   1_655  A
C2840      H2845   1.083       .  S
C2841      C2842   1.417       .  A
C2842     Br2843   1.915       .  S
C2847      C2848   1.397   1_554  A
C2847      C2852   1.394       .  A
C2847      H2854   1.084       .  S
C2848      C2849   1.410       .  A
C2849      C2850   1.404       .  A
C2849     Br2856   1.917       .  S
C2850      C2851   1.408       .  A
C2850      H2855   1.083       .  S
C2851      C2852   1.424   1_556  A
C2852     Br2853   1.927       .  S
C2857      C2858   1.398       .  A
C2857      C2862   1.397       .  A
C2857      H2864   1.083       .  S
C2858      C2859   1.409       .  A
C2859      C2860   1.400       .  A
C2859     Br2866   1.917   1_554  S
C2860      C2861   1.402       .  A
C2860      H2865   1.083       .  S
C2861      C2862   1.413       .  A
C2862     Br2863   1.922       .  S
C2867      C2868   1.416       .  A
C2867      C2872   1.420       .  A
C2867      H2874   1.078       .  S
C2868      C2869   1.425   1_545  A
C2869      C2870   1.420       .  A
C2869     Br2876   1.921       .  S
C2870      C2871   1.415   1_565  A
C2870      H2875   1.083       .  S
C2871      C2872   1.422       .  A
C2872     Br2873   1.919       .  S
C2877      C2878   1.413       .  A
C2877      C2882   1.419       .  A
C2877      H2884   1.083       .  S
C2878      C2879   1.423   1_565  A
C2879      C2880   1.415       .  A
C2879     Br2886   1.922       .  S
C2880      C2881   1.414   1_545  A
C2880      H2885   1.081       .  S
C2881      C2882   1.427       .  A
C2882     Br2883   1.920       .  S
C2887      C2888   1.403       .  A
C2887      C2892   1.407       .  A
C2887      H2894   1.083       .  S
C2888      C2889   1.416   1_565  A
C2889      C2890   1.404       .  A
C2889     Br2896   1.915       .  S
C2890      C2891   1.400   1_545  A
C2890      H2895   1.083       .  S
C2891      C2892   1.414       .  A
C2892     Br2893   1.919       .  S
C2897      C2898   1.423       .  A
C2897      C2902   1.439       .  A
C2897      H2904   1.078       .  S
C2898      C2899   1.444   1_655  A
C2899      C2900   1.437       .  A
C2899     Br2906   1.922       .  S
C2900      C2901   1.416   1_455  A
C2900      H2905   1.083       .  S
C2901      C2902   1.433       .  A
C2902     Br2903   1.918       .  S
C2907      C2908   1.403   1_545  A
C2907      C2912   1.405       .  A
C2907      H2914   1.081       .  S
C2908      C2909   1.406       .  A
C2909      C2910   1.399       .  A
C2909     Br2916   1.918       .  S
C2910      C2911   1.411       .  A
C2910      H2915   1.083       .  S
C2911      C2912   1.420   1_565  A
C2912     Br2913   1.922       .  S
C2917      C2918   1.419   1_655  A
C2917      C2922   1.441       .  A
C2917      H2924   1.083       .  S
C2918      C2919   1.430       .  A
C2919      C2920   1.436       .  A
C2919     Br2926   1.920       .  S
C2920      C2921   1.427   1_455  A
C2920      H2925   1.079       .  S
C2921      C2922   1.441       .  A
C2922     Br2923   1.916       .  S
C2927      C2928   1.398   1_565  A
C2927      C2932   1.404       .  A
C2927      H2934   1.083       .  S
C2928      C2929   1.413       .  A
C2929      C2930   1.407       .  A
C2929     Br2936   1.919       .  S
C2930      C2931   1.407   1_545  A
C2930      H2935   1.083       .  S
C2931      C2932   1.424       .  A
C2932     Br2933   1.924       .  S
C2937      C2938   1.413       .  A
C2937      C2942   1.434       .  A
C2937      H2944   1.083       .  S
C2938      C2939   1.434   1_455  A
C2939      C2940   1.439       .  A
C2939     Br2946   1.919       .  S
C2940      C2941   1.423   1_655  A
C2940      H2945   1.078       .  S
C2941      C2942   1.445       .  A
C2942     Br2943   1.921       .  S
C2947      C2948   1.400       .  A
C2947      C2952   1.406       .  A
C2947      H2954   1.083       .  S
C2948      C2949   1.409   1_545  A
C2949      C2950   1.407   1_565  A
C2949     Br2956   1.913       .  S
C2950      C2951   1.406       .  A
C2950      H2955   1.083   1_545  S
C2951      C2952   1.418       .  A
C2952     Br2953   1.920       .  S
C2957      C2958   1.427       .  A
C2957      C2962   1.436       .  A
C2957      H2964   1.080       .  S
C2958      C2959   1.442   1_455  A
C2959      C2960   1.438       .  A
C2959     Br2966   1.919       .  S
C2960      C2961   1.414   1_655  A
C2960      H2965   1.083       .  S
C2961      C2962   1.421       .  A
C2962     Br2963   1.916       .  S
C2967      C2968   1.395       .  A
C2967      C2972   1.395       .  A
C2967      H2974   1.083       .  S
C2968      C2969   1.403   1_455  A
C2969      C2970   1.380       .  A
C2969     Br2976   1.915       .  S
C2970      C2971   1.400   1_655  A
C2970      H2975   1.084       .  S
C2971      C2972   1.413       .  A
C2972     Br2973   1.922       .  S
C2977      C2978   1.398   1_565  A
C2977      C2982   1.390       .  A
C2977      H2984   1.083       .  S
C2978      C2979   1.400   1_554  A
C2979      C2980   1.395       .  A
C2979     Br2986   1.918       .  S
C2980      C2981   1.408   1_556  A
C2980      H2985   1.083       .  S
C2981      C2982   1.413   1_545  A
C2982     Br2983   1.922       .  S
C2987      C2988   1.400   1_655  A
C2987      C2992   1.379       .  A
C2987      H2994   1.085       .  S
C2988      C2989   1.409       .  A
C2989      C2990   1.391       .  A
C2989     Br2996   1.920       .  S
C2990      C2991   1.396       .  A
C2990      H2995   1.083       .  S
C2991      C2992   1.400   1_455  A
C2992     Br2993   1.917   1_554  S
C2997      C2998   1.403   1_556  A
C2997      C3002   1.395       .  A
C2997      H3004   1.083       .  S
C2998      C2999   1.412   1_545  A
C2999      C3000   1.399       .  A
C2999     Br3006   1.919       .  S
C3000      C3001   1.402   1_565  A
C3000      H3005   1.084       .  S
C3001      C3002   1.407   1_554  A
C3002     Br3003   1.920       .  S
C3007      C3008   1.397       .  A
C3007      C3012   1.385       .  A
C3007      H3014   1.084       .  S
C3008      C3009   1.397   1_655  A
C3009      C3010   1.380       .  A
C3009     Br3016   1.921       .  S
C3010      C3011   1.401   1_455  A
C3010      H3015   1.083       .  S
C3011      C3012   1.400       .  A
C3012     Br3013   1.912   1_545  S
C3017      C3018   1.396   1_455  A
C3017      C3022   1.382       .  A
C3017      H3024   1.085       .  S
C3018      C3019   1.399       .  A
C3019      C3020   1.385       .  A
C3019     Br3026   1.917   1_565  S
C3020      C3021   1.397       .  A
C3020      H3025   1.082   1_565  S
C3021      C3022   1.403   1_655  A
C3022     Br3023   1.915       .  S
