geometry optimzed in LAMMPS
_audit_creation_date              2020-12-01 
_audit_creation_method            'lammps2cif' 
_symmetry_space_group_name_H-M    'P1' 
_symmetry_Int_Tables_number       1 
_symmetry_cell_setting            triclinic 
loop_ 
_symmetry_equiv_pos_as_xyz 
  x,y,z 
_cell_length_a                    42.10227587 
_cell_length_b                    33.6075613125855 
_cell_length_c                    40.603523155751496 
_cell_angle_alpha                 90.08180853095242 
_cell_angle_beta                  98.22827165632937 
_cell_angle_gamma                 89.28508105955595 
loop_ 
_atom_site_label 
_atom_site_type_symbol 
_atom_site_fract_x 
_atom_site_fract_y 
_atom_site_fract_z 
_atom_site_charge 
O1          O  0.08677345  0.63747065  0.35794370    -0.86000
O2          O  0.13606672  0.58665844  0.38004223    -0.83000
C3          C  0.12261639  0.55297268  0.38093149     0.97500
O4          O  0.11028549  0.53643979  0.35455886    -0.83100
O5          O  0.08483679  0.52196882  0.29026666    -0.85700
C6          C  0.05666780  0.53630659  0.28865547     1.02000
O7          O  0.05288641  0.57168603  0.29680840    -0.78500
O8          O  0.06152978  0.65031917  0.30841813    -0.78700
C9          C  0.06187534  0.64936782  0.33968862     1.01900
O10         O  0.12417497  0.67661486  0.31157696    -0.86000
O11         O  0.17272784  0.62114058  0.33226385    -0.83100
C12         C  0.18715271  0.58836128  0.33878846     0.97500
O13         O  0.17130825  0.55635153  0.33641294    -0.83100
O14         O  0.14277880  0.55059550  0.27032442    -0.85700
C15         C  0.12191676  0.55325901  0.24489401     1.02000
O16         O  0.09569752  0.57200425  0.24655221    -0.78500
O17         O  0.10881867  0.64834907  0.26327982    -0.78700
C18         C  0.11994734  0.67779347  0.27973979     1.01900
Cr19       Cr  0.12890116  0.62858649  0.34319771     1.93700
Cr20       Cr  0.12657426  0.54493587  0.31301073     1.93200
Cr21       Cr  0.08192712  0.60971650  0.28090799     1.39100
O22         O  0.11299435  0.59482197  0.31212704    -1.23700
O23         O  0.42122931  0.63783057  0.38179068    -0.86000
O24         O  0.37270800  0.58738707  0.36003553    -0.83000
C25         C  0.38663962  0.55359799  0.35981923     0.97500
O26         O  0.39901427  0.53753742  0.38655917    -0.83100
O27         O  0.42386469  0.52416195  0.45150677    -0.85700
C28         C  0.45191557  0.53811629  0.45393080     1.02000
O29         O  0.45565151  0.57334337  0.44549745    -0.78500
O30         O  0.44580479  0.65176561  0.43132813    -0.78700
C31         C  0.44567369  0.65024531  0.40007909     1.01900
O32         O  0.38267032  0.67875687  0.42627259    -0.86000
O33         O  0.33505270  0.62343783  0.40636583    -0.83100
C34         C  0.32115378  0.59074046  0.40003496     0.97500
O35         O  0.33744383  0.55858048  0.40358220    -0.83100
O36         O  0.36552726  0.55390851  0.47032450    -0.85700
C37         C  0.38527069  0.55318605  0.99771204     1.02000
O38         O  0.41100509  0.57208556  0.99594951    -0.78500
O39         O  0.39730062  0.65177371  0.47534313    -0.78700
C40         C  0.38632051  0.68092094  0.45797578     1.01900
Cr41       Cr  0.37900540  0.62993316  0.39600505     1.93700
Cr42       Cr  0.38214397  0.54715595  0.42781070     1.93200
Cr43       Cr  0.42545039  0.61234693  0.45942510     1.39100
O44         O  0.39507916  0.59683293  0.42796330    -1.23700
O45         O  0.38424061  0.32515222  0.17868049    -0.86000
O46         O  0.33547666  0.37993402  0.15910701    -0.83000
C47         C  0.32069786  0.41267576  0.15425369     0.97500
O48         O  0.33589675  0.44508200  0.15822587    -0.83100
O49         O  0.36495823  0.44906925  0.22429242    -0.85700
C50         C  0.38655279  0.44652320  0.24911919     1.02000
O51         O  0.41231810  0.42758615  0.24662109    -0.78500
O52         O  0.39761486  0.35203740  0.22791974    -0.78700
C53         C  0.38750123  0.32283751  0.21045851     1.01900
O54         O  0.42192118  0.36755549  0.13421996    -0.86000
O55         O  0.37185334  0.41786417  0.11266015    -0.83100
C56         C  0.38475929  0.45202650  0.11282932     0.97500
O57         O  0.39595686  0.46812896  0.13976012    -0.83100
O58         O  0.42231587  0.47930388  0.20388319    -0.85700
C59         C  0.45048244  0.46496135  0.20533127     1.02000
O60         O  0.45444498  0.42958747  0.19705718    -0.78500
O61         O  0.44549644  0.35115746  0.18361367    -0.78700
C62         C  0.44624580  0.35439723  0.15268046     1.01900
Cr63       Cr  0.37936553  0.37446754  0.14841254     1.93700
Cr64       Cr  0.38047128  0.45677105  0.18134473     1.93200
Cr65       Cr  0.42525318  0.39097271  0.21168661     1.39100
O66         O  0.39452328  0.40714527  0.18062179    -1.23700
O67         O  0.12690252  0.32611547  0.06349860    -0.86000
O68         O  0.17499485  0.38083612  0.08258671    -0.83000
C69         C  0.18906515  0.41333250  0.08903935     0.97500
O70         O  0.17318256  0.44573463  0.08564982    -0.83100
O71         O  0.14341927  0.45050264  0.01943117    -0.85700
C72         C  0.12088765  0.44950107  0.49383818     1.02000
O73         O  0.09506977  0.43126825  0.49611417    -0.78500
O74         O  0.11106927  0.35380336  0.01494949    -0.78700
C75         C  0.12259217  0.32446764  0.03167906     1.01900
O76         O  0.08998500  0.36774067  0.10978704    -0.86000
O77         O  0.13902357  0.41743574  0.13064182    -0.83100
C78         C  0.12516415  0.45134036  0.13115453     0.97500
O79         O  0.11318346  0.46812075  0.10464362    -0.83100
O80         O  0.08620624  0.48107241  0.04074594    -0.85700
C81         C  0.05821574  0.46718909  0.03950498     1.02000
O82         O  0.05482609  0.43199985  0.04820588    -0.78500
O83         O  0.06456454  0.35342624  0.06095738    -0.78700
C84         C  0.06495394  0.35618350  0.09212798     1.01900
Cr85       Cr  0.13167637  0.37483069  0.09437157     1.93700
Cr86       Cr  0.12837735  0.45776743  0.06272713     1.93200
Cr87       Cr  0.08384739  0.39302345  0.03247719     1.39100
O88         O  0.11512093  0.40821590  0.06299741    -1.23700
O89         O  0.37337860  0.82651339  0.06341871    -0.86000
O90         O  0.42127941  0.88181122  0.08135878    -0.83000
C91         C  0.43526763  0.91454966  0.08692329     0.97500
O92         O  0.41926349  0.94688152  0.08343471    -0.83100
O93         O  0.39110385  0.95025932  0.01744654    -0.85700
C94         C  0.36901339  0.94645078  0.49347656     1.02000
O95         O  0.34308613  0.92830099  0.49584491    -0.78500
O96         O  0.35958443  0.85270695  0.01402876    -0.78700
C97         C  0.36976286  0.82349276  0.03173549     1.01900
O98         O  0.33575840  0.86961580  0.10758374    -0.86000
O99         O  0.38502406  0.91995267  0.12809391    -0.83100
C100        C  0.37147668  0.95406216  0.12809718     0.97500
O101        O  0.35844550  0.96950513  0.10131891    -0.83100
O102        O  0.33250722  0.98085815  0.03604473    -0.85700
C103        C  0.30467141  0.96622055  0.03401000     1.02000
O104        O  0.30165462  0.93135397  0.04353578    -0.78500
O105        O  0.31129104  0.85356492  0.05851267    -0.78700
C106        C  0.31142551  0.85617192  0.08975159     1.01900
Cr107      Cr  0.37781740  0.87631890  0.09282481     1.93700
Cr108      Cr  0.37460776  0.95839476  0.05978421     1.93200
Cr109      Cr  0.33145292  0.89239140  0.02953397     1.39100
O110        O  0.36172514  0.90873708  0.06055090    -1.23700
O111        O  0.13208261  0.82446870  0.17395592    -0.86000
O112        O  0.08322973  0.87890890  0.15334728    -0.83000
C113        C  0.06816713  0.91141588  0.14823684     0.97500
O114        O  0.08326859  0.94389864  0.15276496    -0.83100
O115        O  0.11165319  0.94827713  0.21937679    -0.85700
C116        C  0.13281818  0.94593844  0.24460560     1.02000
O117        O  0.15899457  0.92741653  0.24255758    -0.78500
O118        O  0.14579422  0.85140538  0.22314082    -0.78700
C119        C  0.13500665  0.82246564  0.20571756     1.01900
O120        O  0.17040694  0.86663164  0.12991774    -0.86000
O121        O  0.12045387  0.91690623  0.10788183    -0.83100
C122        C  0.13300756  0.95126027  0.10827913     0.97500
O123        O  0.14352566  0.96765999  0.13530065    -0.83100
O124        O  0.16904846  0.97943810  0.19973900    -0.85700
C125        C  0.19747686  0.96584782  0.20134808     1.02000
O126        O  0.20202361  0.93046537  0.19335105    -0.78500
O127        O  0.19428641  0.85178221  0.17959475    -0.78700
C128        C  0.19478741  0.85382649  0.14851371     1.01900
Cr129      Cr  0.12758320  0.87370146  0.14365377     1.93700
Cr130      Cr  0.12762841  0.95609220  0.17661428     1.93200
Cr131      Cr  0.17300363  0.89113798  0.20743371     1.39100
O132        O  0.14225074  0.90666005  0.17603218    -1.23700
O133        O  0.16762446  0.13195074  0.38151548    -0.86000
O134        O  0.11865146  0.08149363  0.35964555    -0.83000
C135        C  0.13222743  0.04730823  0.35993099     0.97500
O136        O  0.14381310  0.03132377  0.38696370    -0.83100
O137        O  0.16846073  0.01961323  0.45218785    -0.85700
C138        C  0.19651579  0.03346472  0.45421075     1.02000
O139        O  0.20032338  0.06868373  0.44581521    -0.78500
O140        O  0.19095549  0.14689078  0.43127334    -0.78700
C141        C  0.19188785  0.14415810  0.40031004     1.01900
O142        O  0.12867373  0.17472888  0.42523639    -0.86000
O143        O  0.08078206  0.11937561  0.40534600    -0.83100
C144        C  0.06672116  0.08660315  0.40003175     0.97500
O145        O  0.08271840  0.05430190  0.40363055    -0.83100
O146        O  0.10992379  0.05062835  0.47021679    -0.85700
C147        C  0.13255847  0.05480448  0.99474781     1.02000
O148        O  0.15854575  0.07292594  0.99260510    -0.78500
O149        O  0.14201736  0.14772363  0.47438334    -0.83500
C150        C  0.13186329  0.17715878  0.45700454     1.01900
Cr151      Cr  0.12491726  0.12500899  0.39525053     1.93700
Cr152      Cr  0.12695810  0.04261098  0.42805331     1.93200
Cr153      Cr  0.17026155  0.10799195  0.45923497     1.39100
O154        O  0.14027408  0.09217378  0.42763792    -1.23700
O155        O  0.33235525  0.13149254  0.35831743    -0.86000
O156        O  0.38173346  0.08011359  0.37852448    -0.83000
C157        C  0.36873611  0.04598158  0.37728236     0.97500
O158        O  0.35774034  0.03089747  0.34982768    -0.83100
O159        O  0.33226909  0.02278094  0.28458282    -0.85700
C160        C  0.30408280  0.03731595  0.28282747     1.02000
O161        O  0.30021779  0.07217829  0.29247820    -0.78500
O162        O  0.30926703  0.14968927  0.30925167    -0.78700
C163        C  0.30815277  0.14530146  0.34003685     1.01900
O164        O  0.37115113  0.17584734  0.31604253    -0.86000
O165        O  0.41925700  0.11995235  0.33444082    -0.83100
C166        C  0.43395925  0.08712053  0.33890692     0.97500
O167        O  0.41864148  0.05485167  0.33349878    -0.83100
O168        O  0.39048763  0.05366803  0.26652495    -0.85700
C169        C  0.36937960  0.05777249  0.24136221     1.02000
O170        O  0.34363480  0.07672017  0.24409126    -0.78500
O171        O  0.35822085  0.15105742  0.26599993    -0.78700
C172        C  0.36866646  0.17930927  0.28441429     1.01900
Cr173      Cr  0.37510706  0.12504123  0.34445740     1.93700
Cr174      Cr  0.37409159  0.04417301  0.30892285     1.93200
Cr175      Cr  0.33001811  0.11144944  0.28009873     1.39100
O176        O  0.36021409  0.09379074  0.31104426    -1.23700
C177        C  0.28001445  0.15345149  0.38987898    -0.27000
C178        C  0.27834154  0.15409943  0.35497715    -0.15000
C179        C  0.24780048  0.15785002  0.33544670     0.35600
C180        C  0.21994547  0.15687147  0.35102586    -0.26400
C181        C  0.22167700  0.15316355  0.38579180    -0.15700
C182        C  0.25221459  0.15317348  0.40534874     0.36700
N183        N  0.25533134  0.15097385  0.44089769    -0.89900
H184        H  0.30313147  0.15137888  0.40545374     0.17800
H185        H  0.19665780  0.15768702  0.33571310     0.17800
N186        N  0.24493743  0.16072677  0.29982551    -0.88900
H187        H  0.26819204  0.17573593  0.45070734     0.35200
H188        H  0.26880390  0.12548847  0.44868744     0.40300
H189        H  0.25458434  0.18802123  0.29425144     0.39900
H190        H  0.22082241  0.16158132  0.28916821     0.34800
C191        C  0.01970561  0.05248643  0.36804081    -0.27000
C192        C  0.03212099  0.08597045  0.38617467    -0.15000
C193        C  0.01198639  0.11944762  0.38810909     0.35600
C194        C  0.48091951  0.12126146  0.37073963    -0.26400
C195        C  0.46842237  0.08695044  0.35388451    -0.15700
C196        C  0.48835935  0.05280752  0.35396035     0.36700
N197        N  0.47673967  0.01743916  0.33652073    -0.89900
H198        H  0.03509502  0.02678765  0.36598821     0.17800
H199        H  0.46592972  0.14758897  0.37155763     0.17800
N200        N  0.02321386  0.15363086  0.40724620    -0.88900
H201        H  0.99379590  0.99559063  0.33385028     0.35200
H202        H  0.47254245  0.02429499  0.31115003     0.40300
H203        H  0.00825061  0.15836655  0.42537349     0.39900
H204        H  0.02101918  0.17831693  0.39141097     0.34800
C205        C  0.21919281  0.01410869  0.24431873    -0.27000
C206        C  0.22479447  0.98781608  0.21887663    -0.15000
C207        C  0.25660517  0.97726929  0.21514669     0.35600
C208        C  0.28208724  0.99166944  0.23773483    -0.26400
C209        C  0.27648606  0.01737281  0.26361492    -0.15700
C210        C  0.24467649  0.02909684  0.26654738     0.36700
N211        N  0.23808127  0.05619835  0.29207035    -0.89900
H212        H  0.19485894  0.02195415  0.24787520     0.17800
H213        H  0.30641420  0.98382062  0.23417151     0.17800
N214        N  0.26313295  0.95214429  0.18830379    -0.88900
H215        H  0.22270814  0.04231041  0.30638987     0.35200
H216        H  0.22590537  0.08090943  0.28057713     0.40300
H217        H  0.27587827  0.92711804  0.19848293     0.39900
H218        H  0.27787514  0.96765079  0.17423708     0.34800
C219        C  0.15577928  0.96856337  0.30103560    -0.27000
C220        C  0.13011686  0.97012711  0.27484091    -0.15000
C221        C  0.10533827  0.99874153  0.27631789     0.35600
C222        C  0.10703648  0.02517468  0.30345818    -0.26400
C223        C  0.13291163  0.02346632  0.32936997    -0.15700
C224        C  0.15747281  0.99476802  0.32793523     0.36700
N225        N  0.18444629  0.99214553  0.35380733    -0.89900
H226        H  0.17530838  0.94738151  0.30046166     0.17800
H227        H  0.08761788  0.04636561  0.30466384     0.17800
N228        N  0.07851481  0.00139760  0.25036514    -0.88900
H229        H  0.20540787  0.99561960  0.34314816     0.35200
H230        H  0.18502327  0.96360255  0.36409023     0.40300
H231        H  0.07771377  0.03014570  0.24044069     0.39900
H232        H  0.05758438  0.99727069  0.26097682     0.34800
C233        C  0.10806488  0.97397072  0.05188039    -0.27000
C234        C  0.13386570  0.97491039  0.07781706    -0.15000
C235        C  0.15822992  0.00322098  0.07682697     0.35600
C236        C  0.15628540  0.03006236  0.05039599    -0.26400
C237        C  0.13047676  0.02958750  0.02437047    -0.15700
C238        C  0.10606484  0.00108779  0.02526231     0.36700
N239        N  0.07928584  0.99926986  0.99924863    -0.89900
H240        H  0.08884511  0.95301478  0.05277443     0.17800
H241        H  0.17559797  0.05102541  0.05013944     0.17800
N242        N  0.18507581  0.00502193  0.10286108    -0.88900
H243        H  0.05828650  0.00326256  0.00989992     0.35200
H244        H  0.07888360  0.97079382  0.98879351     0.40300
H245        H  0.18520557  0.03331357  0.11363642     0.39900
H246        H  0.20615527  0.00173263  0.09230106     0.34800
C247        C  0.21982476  0.98644906  0.99296966    -0.27000
C248        C  0.22406931  0.01231958  0.47266461    -0.15000
C249        C  0.25557810  0.02128879  0.46735585     0.35600
C250        C  0.28146186  0.00858654  0.49060216    -0.26400
C251        C  0.27674331  0.98568076  0.01431687    -0.15700
C252        C  0.24532491  0.97229518  0.01588016     0.36700
N253        N  0.23913452  0.94425900  0.04070176    -0.89900
H254        H  0.19572037  0.97714977  0.99546641     0.17800
H255        H  0.30568019  0.01479419  0.48611315     0.17800
N256        N  0.26107851  0.04311087  0.43829261    -0.88900
H257        H  0.22892320  0.91901999  0.02857487     0.35200
H258        H  0.22224155  0.95681199  0.05422159     0.40300
H259        H  0.25281595  0.02579907  0.41749674     0.39900
H260        H  0.28565921  0.04707080  0.43806188     0.34800
C261        C  0.34810540  0.96508592  0.43539954    -0.27000
C262        C  0.37163377  0.97023766  0.46319755    -0.15000
C263        C  0.39393586  0.00167704  0.46270916     0.35600
C264        C  0.39194377  0.02669947  0.43494996    -0.26400
C265        C  0.36824881  0.02150765  0.40743227    -0.15700
C266        C  0.34606554  0.99032963  0.40783403     0.36700
N267        N  0.32093867  0.98449544  0.38052748    -0.89900
H268        H  0.33049363  0.94180816  0.43522588     0.17800
H269        H  0.40938978  0.05011882  0.43478330     0.17800
N270        N  0.41851309  0.00975081  0.49002534    -0.88900
H271        H  0.29891828  0.98664834  0.38955260     0.35200
H272        H  0.32324660  0.95566831  0.37139667     0.40300
H273        H  0.43663042  0.97451967  0.98628879     0.39900
H274        H  0.40782082  0.01683935  0.51101783     0.34800
C275        C  0.34532727  0.00382363  0.15976992    -0.27000
C276        C  0.37167821  0.97826126  0.15849916    -0.15000
C277        C  0.39874609  0.98136017  0.18327140     0.35600
C278        C  0.39831588  0.00894843  0.20919412    -0.26400
C279        C  0.37164222  0.03436294  0.21064103    -0.15700
C280        C  0.34514358  0.03223982  0.18490747     0.36700
N281        N  0.31780278  0.05847159  0.18440038    -0.89900
H282        H  0.32476955  0.00216037  0.14042786     0.17800
H283        H  0.41886979  0.01008866  0.22855137     0.17800
N284        N  0.42725218  0.95793463  0.18224057    -0.88900
H285        H  0.29996661  0.05176401  0.16457936     0.35200
H286        H  0.32542757  0.08726443  0.18013252     0.40300
H287        H  0.43562726  0.96328407  0.15965934     0.39900
H288        H  0.42144745  0.92785602  0.18340938     0.34800
C289        C  0.25443305  0.84650752  0.15430046    -0.27000
C290        C  0.22461997  0.84412155  0.13400190    -0.15000
C291        C  0.22412519  0.83784722  0.09940645     0.35600
C292        C  0.25299160  0.83928509  0.08554814    -0.26400
C293        C  0.28255724  0.84588032  0.10555861    -0.15700
C294        C  0.28321744  0.84713786  0.14055670     0.36700
N295        N  0.31298857  0.85027906  0.16239148    -0.89900
H296        H  0.25545488  0.85023323  0.18094556     0.17800
H297        H  0.25211838  0.83702243  0.05881999     0.17800
N298        N  0.19424433  0.83104445  0.07832188    -0.88900
H299        H  0.31498841  0.82609428  0.17875798     0.35200
H300        H  0.31225783  0.87633088  0.17637652     0.40300
H301        H  0.18518039  0.80419934  0.08577692     0.39900
H302        H  0.19798147  0.82718454  0.05360127     0.34800
C303        C  0.48224242  0.88079381  0.11944588    -0.27000
C304        C  0.46954461  0.91459128  0.10163187    -0.15000
C305        C  0.48878888  0.94859146  0.10104938     0.35600
C306        C  0.01775193  0.94852331  0.12606654    -0.26400
C307        C  0.03337470  0.91177742  0.13397678    -0.15700
C308        C  0.01631884  0.87632466  0.12512949     0.36700
N309        N  0.03109663  0.83793956  0.13256206    -0.89900
H310        H  0.46735561  0.85491930  0.12065861     0.17800
H311        H  0.03058310  0.97588322  0.13222612     0.17800
N312        N  0.47659983  0.98342057  0.08267661    -0.88900
H313        H  0.01583078  0.81511087  0.12295408     0.35200
H314        H  0.03442631  0.83453648  0.15842309     0.40300
H315        H  0.47256147  0.97568762  0.05747387     0.39900
H316        H  0.98665922  0.01196019  0.11047531     0.34800
C317        C  0.12506952  0.25052748  0.02803299    -0.27000
C318        C  0.12790749  0.28744624  0.01300666    -0.15000
C319        C  0.12440706  0.28758404  0.47577995     0.35600
C320        C  0.12561112  0.25144619  0.45842544    -0.26400
C321        C  0.12657150  0.21488199  0.47505277    -0.15700
C322        C  0.12527706  0.21511085  0.00971057     0.36700
N323        N  0.12115449  0.17813832  0.02603748    -0.89900
H324        H  0.12151209  0.24909047  0.05391517     0.17800
H325        H  0.12655394  0.25216203  0.43190144     0.17800
N326        N  0.12391037  0.32418409  0.45762707    -0.88900
H327        H  0.09928606  0.17943500  0.03540278     0.35200
H328        H  0.13953678  0.17515970  0.04615196     0.40300
H329        H  0.10378947  0.32427178  0.43924982     0.39900
H330        H  0.14439525  0.32493785  0.44581785     0.34800
C331        C  0.38214787  0.21377998  0.23417564    -0.27000
C332        C  0.37574789  0.21660961  0.26731097    -0.15000
C333        C  0.37288874  0.25457839  0.28136564     0.35600
C334        C  0.37605191  0.28856829  0.26189972    -0.26400
C335        C  0.38187567  0.28566954  0.22854265    -0.15700
C336        C  0.38542992  0.24769232  0.21478701     0.36700
N337        N  0.39303673  0.24353283  0.18153342    -0.89900
H338        H  0.38464842  0.18470483  0.22319735     0.17800
H339        H  0.37368917  0.31767323  0.27287065     0.17800
N340        N  0.36613245  0.25865883  0.31493545    -0.88900
H341        H  0.39426024  0.21350314  0.17500728     0.35200
H342        H  0.41603292  0.25487560  0.18138051     0.40300
H343        H  0.34305865  0.24783460  0.31561307     0.39900
H344        H  0.36554830  0.28866339  0.32169365     0.34800
C345        C  0.23510393  0.44658259  0.12326916    -0.27000
C346        C  0.22318363  0.41331876  0.10454143    -0.15000
C347        C  0.24304688  0.37925068  0.10408197     0.35600
C348        C  0.27417816  0.37925313  0.12168545    -0.26400
C349        C  0.28630927  0.41272053  0.13986680    -0.15700
C350        C  0.26629630  0.44648009  0.14098808     0.36700
N351        N  0.27725573  0.48042549  0.16056579    -0.89900
H352        H  0.21992290  0.47258587  0.12489018     0.17800
H353        H  0.28923754  0.35310192  0.12024227     0.17800
N354        N  0.23196126  0.34462947  0.08546870    -0.88900
H355        H  0.26164180  0.48530139  0.17805095     0.35200
H356        H  0.27579015  0.50518579  0.14483700     0.40300
H357        H  0.23324282  0.32054522  0.10189810     0.39900
H358        H  0.24755454  0.33876880  0.06814161     0.34800
C359        C  0.00575330  0.34688026  0.08701173    -0.27000
C360        C  0.03548738  0.34873917  0.10767244    -0.15000
C361        C  0.03562231  0.34809623  0.14275645     0.35600
C362        C  0.00661188  0.34757729  0.15583501    -0.26400
C363        C  0.47624457  0.34582915  0.13835475    -0.15700
C364        C  0.47609150  0.34108032  0.10376627     0.36700
N365        N  0.44648161  0.33664921  0.08191572    -0.89900
H366        H  0.00481809  0.34716787  0.06020258     0.17800
H367        H  0.00745586  0.34866299  0.18262296     0.17800
N368        N  0.06457940  0.34923558  0.16605077    -0.88900
H369        H  0.44757048  0.30979148  0.06906043     0.35200
H370        H  0.44448619  0.35981422  0.06455770     0.40300
H371        H  0.07563441  0.37664678  0.16423168     0.39900
H372        H  0.07983759  0.32608456  0.16066518     0.34800
C373        C  0.38019547  0.71372257  0.01102439    -0.27000
C374        C  0.38016800  0.71795650  0.47608140    -0.15000
C375        C  0.38274612  0.75592653  0.46220931     0.35600
C376        C  0.38036642  0.78971756  0.48211161    -0.26400
C377        C  0.37507102  0.78563141  0.01404789    -0.15700
C378        C  0.37732640  0.74829442  0.02997758     0.36700
N379        N  0.37618926  0.74530845  0.06511105    -0.89900
H380        H  0.38204009  0.68525728  0.02367698     0.17800
H381        H  0.38247823  0.81881212  0.47121880     0.17800
N382        N  0.38844256  0.76019868  0.42831534    -0.88900
H383        H  0.37924967  0.71576013  0.07306045     0.35200
H384        H  0.35311281  0.75395676  0.06915793     0.40300
H385        H  0.41139789  0.74877355  0.42678657     0.39900
H386        H  0.38878008  0.79025133  0.42175540     0.34800
C387        C  0.36071101  0.50137280  0.27770552    -0.27000
C388        C  0.38494206  0.47187539  0.27871619    -0.15000
C389        C  0.41038715  0.47158773  0.30555679     0.35600
C390        C  0.41144553  0.50107166  0.32985402    -0.26400
C391        C  0.38703544  0.52994754  0.32929937    -0.15700
C392        C  0.36146357  0.53044694  0.30278589     0.36700
N393        N  0.33596175  0.55944325  0.30188911    -0.89900
H394        H  0.34142321  0.50231220  0.25696298     0.17800
H395        H  0.43114053  0.50062148  0.35022857     0.17800
N396        N  0.43527343  0.44153457  0.30815051    -0.88900
H397        H  0.31831622  0.55448509  0.28147907     0.35200
H398        H  0.34564046  0.58728579  0.29809272     0.40300
H399        H  0.42470604  0.41432635  0.31218780     0.39900
H400        H  0.45265073  0.44649147  0.32882226     0.34800
C401        C  0.40818838  0.53001205  0.05408760    -0.27000
C402        C  0.38243017  0.52939165  0.02803165    -0.15000
C403        C  0.35728254  0.50195766  0.02966034     0.35600
C404        C  0.35930140  0.47509918  0.05659705    -0.26400
C405        C  0.38534955  0.47578464  0.08228296    -0.15700
C406        C  0.40986709  0.50379450  0.08091993     0.36700
N407        N  0.43679846  0.50569785  0.10682847    -0.89900
H408        H  0.42781402  0.55042355  0.05344571     0.17800
H409        H  0.33993352  0.45455962  0.05815304     0.17800
N410        N  0.33214639  0.50247060  0.50107714    -0.88900
H411        H  0.43731260  0.53427165  0.11713452     0.35200
H412        H  0.45773451  0.50162015  0.09617432     0.40300
H413        H  0.31863568  0.52874876  0.50131977     0.39900
H414        H  0.31692531  0.47927787  0.50539938     0.34800
C415        C  0.47313841  0.49048733  0.00169395    -0.27000
C416        C  0.47922011  0.51704737  0.47315065    -0.15000
C417        C  0.51099607  0.52584083  0.46890602     0.35600
C418        C  0.03539959  0.51434836  0.49224910    -0.26400
C419        C  0.03047032  0.48823956  0.02106218    -0.15700
C420        C  0.99880046  0.47546390  0.02231467     0.36700
N421        N  0.99225911  0.44711944  0.04692942    -0.89900
H422        H  0.44879299  0.48374318  0.00540298     0.17800
H423        H  0.05972489  0.52058243  0.48812343     0.17800
N424        N  0.51756391  0.54880091  0.44098891    -0.88900
H425        H  0.46816796  0.44852111  0.05221657     0.35200
H426        H  0.99903567  0.45977980  0.07034381     0.40300
H427        H  0.53217356  0.53164206  0.42757626     0.39900
H428        H  0.02894877  0.57666068  0.45033655     0.34800
C429        C  0.12249471  0.75157418  0.27575775    -0.27000
C430        C  0.12522953  0.71443826  0.26077935    -0.15000
C431        C  0.12913683  0.71289834  0.22654865     0.35600
C432        C  0.13074343  0.74843987  0.20855939    -0.26400
C433        C  0.12844730  0.78557277  0.22374069    -0.15700
C434        C  0.12339792  0.78702270  0.25760211     0.36700
N435        N  0.11878149  0.82455565  0.27344765    -0.89900
H436        H  0.11844926  0.75297425  0.30149607     0.17800
H437        H  0.13475535  0.74709292  0.18280652     0.17800
N438        N  0.13168188  0.67527354  0.21011430    -0.88900
H439        H  0.11559658  0.82045829  0.29828183     0.35200
H440        H  0.09745312  0.83725582  0.26138400     0.40300
H441        H  0.15290553  0.66134141  0.22105372     0.39900
H442        H  0.13378470  0.67937424  0.18497887     0.34800
C443        C  0.09689804  0.50348081  0.41229036    -0.27000
C444        C  0.12231837  0.52999786  0.41181316    -0.15000
C445        C  0.14862030  0.52813763  0.43762285     0.35600
C446        C  0.14848486  0.50053499  0.46350372    -0.26400
C447        C  0.12295983  0.47384071  0.46379201    -0.15700
C448        C  0.09726154  0.47506023  0.43727759     0.36700
N449        N  0.07141528  0.44736623  0.43526156    -0.89900
H450        H  0.07678503  0.50388147  0.39234325     0.17800
H451        H  0.16842301  0.50020454  0.48358820     0.17800
N452        N  0.17617030  0.55271285  0.43764583    -0.88900
H453        H  0.07047591  0.43174716  0.41285642     0.35200
H454        H  0.04991045  0.46338368  0.43471760     0.40300
H455        H  0.16882417  0.58249898  0.43812371     0.39900
H456        H  0.18586898  0.54746365  0.41570189     0.34800
C457        C  0.09799841  0.52583172  0.19062453    -0.27000
C458        C  0.12514002  0.52899873  0.21490970    -0.15000
C459        C  0.15247120  0.50469760  0.21217179     0.35600
C460        C  0.15147349  0.47726413  0.18573722    -0.26400
C461        C  0.12399784  0.47406837  0.16198364    -0.15700
C462        C  0.09693228  0.49839762  0.16466020     0.36700
N463        N  0.06840415  0.49527570  0.14063987    -0.89900
H464        H  0.07685524  0.54396919  0.19236707     0.17800
H465        H  0.17257019  0.45948287  0.18291514     0.17800
N466        N  0.18109269  0.50794354  0.23596769    -0.88900
H467        H  0.05063229  0.51529507  0.14601653     0.35200
H468        H  0.05937650  0.46666160  0.14248826     0.40300
H469        H  0.19036909  0.53630500  0.23340570     0.39900
H470        H  0.19864788  0.48762459  0.23056887     0.34800
C471        C  0.23579135  0.62394696  0.36528824    -0.27000
C472        C  0.22192781  0.58819860  0.35271676    -0.15000
C473        C  0.24087897  0.55306161  0.35625647     0.35600
C474        C  0.27276584  0.55432585  0.37244425    -0.26400
C475        C  0.28650160  0.59012533  0.38537126    -0.15700
C476        C  0.26751244  0.62526765  0.38147751     0.36700
N477        N  0.28012021  0.66260558  0.39399064    -0.89900
H478        H  0.22173174  0.65128525  0.36322426     0.17800
H479        H  0.28693574  0.52707459  0.37443726     0.17800
N480        N  0.22810787  0.51606551  0.34314001    -0.88900
H481        H  0.26558304  0.67354786  0.41087004     0.35200
H482        H  0.27862843  0.68255584  0.37407462     0.40300
H483        H  0.22963202  0.49563825  0.36271855     0.39900
H484        H  0.24257843  0.50553044  0.32604192     0.34800
C485        C  0.50249681  0.66255610  0.33575250    -0.27000
C486        C  0.03242771  0.65925556  0.35490530    -0.15000
C487        C  0.03311477  0.66216278  0.38980505     0.35600
C488        C  0.00431385  0.66211790  0.40363012    -0.26400
C489        C  0.47489215  0.66003278  0.38481869    -0.15700
C490        C  0.47378877  0.66400094  0.34988050     0.36700
N491        N  0.44349545  0.66814176  0.32870659    -0.89900
H492        H  0.50125278  0.66301696  0.30892222     0.17800
H493        H  0.00557238  0.66199079  0.43047178     0.17800
N494        N  0.06303008  0.66393624  0.41153459    -0.88900
H495        H  0.44683489  0.67016332  0.30373305     0.35200
H496        H  0.43314330  0.69515478  0.33468878     0.40300
H497        H  0.06435329  0.63974320  0.42786454     0.39900
H498        H  0.06304073  0.69003215  0.42558502     0.34800
C499        C  0.03460031  0.49701376  0.24011203    -0.27000
C500        C  0.02932283  0.51602469  0.26965185    -0.15000
C501        C  0.99756897  0.52151953  0.27651031     0.35600
C502        C  0.47247964  0.50712074  0.25218073    -0.26400
C503        C  0.47783955  0.48563668  0.22380946    -0.15700
C504        C  0.50960511  0.47858034  0.21762819     0.36700
N505        N  0.51666545  0.45844120  0.18834869    -0.89900
H506        H  0.05874782  0.49342515  0.23421201     0.17800
H507        H  0.44827532  0.51179516  0.25771462     0.17800
N508        N  0.99058804  0.53917106  0.30688057    -0.88900
H509        H  0.50355881  0.47214890  0.16750765     0.35200
H510        H  0.50992479  0.42874475  0.18916140     0.40300
H511        H  0.99763057  0.56886367  0.30783902     0.39900
H512        H  0.00360266  0.52377032  0.32687197     0.34800
O513        O  0.08890711  0.63705400  0.85953352    -0.86000
O514        O  0.13737223  0.58539425  0.88133810    -0.83000
C515        C  0.12315999  0.55234266  0.88270337     0.97500
O516        O  0.11015249  0.53579395  0.85663285    -0.83100
O517        O  0.08445464  0.52056820  0.79294546    -0.85700
C518        C  0.05646174  0.53529539  0.79082938     1.02000
O519        O  0.05279483  0.57106061  0.79812602    -0.78500
O520        O  0.06291996  0.64964540  0.81025695    -0.78700
C521        C  0.06383578  0.64902013  0.84164980     1.01900
O522        O  0.12622350  0.67456838  0.81258535    -0.86000
O523        O  0.17366564  0.61770618  0.83244944    -0.83100
C524        C  0.18741495  0.58480425  0.84010202     0.97500
O525        O  0.17109178  0.55326003  0.83782606    -0.83100
O526        O  0.14189566  0.54678119  0.77163781    -0.85700
C527        C  0.12079091  0.54980537  0.74636379     1.02000
O528        O  0.09529257  0.57006698  0.74803059    -0.78500
O529        O  0.10999294  0.64668163  0.76433411    -0.78700
C530        C  0.12187233  0.67581237  0.78080085     1.01900
Cr531      Cr  0.13043824  0.62677888  0.84417487     1.93700
Cr532      Cr  0.12626024  0.54281308  0.81481685     1.93200
Cr533      Cr  0.08250179  0.60853152  0.78234381     1.39100
O534        O  0.11351039  0.59306212  0.81348338    -1.23700
O535        O  0.42063105  0.63196829  0.88271196    -0.86000
O536        O  0.37113793  0.58195235  0.86157620    -0.83000
C537        C  0.38462543  0.54784734  0.86141091     0.97500
O538        O  0.39733280  0.53213761  0.88817921    -0.83100
O539        O  0.42298320  0.52002643  0.95317713    -0.85700
C540        C  0.45092579  0.53431313  0.95529889     1.02000
O541        O  0.45435127  0.56947565  0.94662661    -0.78500
O542        O  0.44446538  0.64749289  0.93219796    -0.78700
C543        C  0.44482634  0.64503691  0.90106649     1.01900
O544        O  0.38256633  0.67458177  0.92687288    -0.86000
O545        O  0.33461497  0.61956667  0.90824657    -0.83100
C546        C  0.32037190  0.58697766  0.90278664     0.97500
O547        O  0.33633401  0.55457328  0.90612933    -0.83100
O548        O  0.36461714  0.55012780  0.97220765    -0.85700
C549        C  0.38610204  0.55700330  0.49596369     1.02000
O550        O  0.41188732  0.57586951  0.49438947    -0.78500
O551        O  0.39606816  0.64803737  0.97619725    -0.78700
C552        C  0.38594854  0.67736863  0.95855841     1.01900
Cr553      Cr  0.37827917  0.62512528  0.89714178     1.93700
Cr554      Cr  0.38104225  0.54276633  0.92969875     1.93200
Cr555      Cr  0.42430283  0.60837372  0.96064167     1.39100
O556        O  0.39408771  0.59238489  0.92935065    -1.23700
O557        O  0.38332748  0.32683392  0.67384039    -0.86000
O558        O  0.33508158  0.38320001  0.65594297    -0.83000
C559        C  0.32044909  0.41605693  0.65109123     0.97500
O560        O  0.33599205  0.44819789  0.65576094    -0.83100
O561        O  0.36452689  0.44904526  0.72240579    -0.85700
C562        C  0.38570914  0.44510995  0.74750593     1.02000
O563        O  0.41161346  0.42647275  0.74479953    -0.78500
O564        O  0.39740431  0.35202036  0.72359642    -0.78700
C565        C  0.38671905  0.32358700  0.70556836     1.01900
O566        O  0.42126042  0.37063682  0.63027317    -0.86000
O567        O  0.37198898  0.42242133  0.61057176    -0.83100
C568        C  0.38523266  0.45644845  0.61151037     0.97500
O569        O  0.39661466  0.47163226  0.63883526    -0.83100
O570        O  0.42243482  0.48025907  0.70417291    -0.85700
C571        C  0.45060698  0.46574661  0.70590551     1.02000
O572        O  0.45433456  0.43118817  0.69559296    -0.78500
O573        O  0.44531469  0.35339087  0.67928744    -0.78700
C574        C  0.44571911  0.35717003  0.64830434     1.01900
Cr575      Cr  0.37892033  0.37755750  0.64498545     1.93700
Cr576      Cr  0.38061352  0.45869156  0.67998200     1.93200
Cr577      Cr  0.42501095  0.39172036  0.70866676     1.39100
O578        O  0.39442138  0.40904533  0.67797810    -1.23700
O579        O  0.12413470  0.32657894  0.56125952    -0.86000
O580        O  0.17276201  0.38070857  0.58208994    -0.83000
C581        C  0.18700992  0.41314458  0.58862547     0.97500
O582        O  0.17114700  0.44556626  0.58541942    -0.83100
O583        O  0.14230331  0.45186220  0.51889446    -0.85700
C584        C  0.12165763  0.44818543  0.99473415     1.02000
O585        O  0.09607290  0.42965127  0.99740318    -0.78500
O586        O  0.10840198  0.35470370  0.51288178    -0.78700
C587        C  0.11943068  0.32498682  0.52943649     1.01900
O588        O  0.08669052  0.36728659  0.60737792    -0.86000
O589        O  0.13569803  0.41652816  0.62948381    -0.83100
C590        C  0.12197213  0.45046113  0.63036610     0.97500
O591        O  0.11077398  0.46813714  0.60397153    -0.83100
O592        O  0.08517615  0.48268217  0.53958597    -0.85700
C593        C  0.05704302  0.46929212  0.53790440     1.02000
O594        O  0.05306945  0.43409373  0.54628160    -0.78500
O595        O  0.06138405  0.35491348  0.55804438    -0.78700
C596        C  0.06178611  0.35606200  0.58926774     1.01900
Cr597      Cr  0.12881602  0.37472042  0.59271423     1.93700
Cr598      Cr  0.12666435  0.45833933  0.56209504     1.93200
Cr599      Cr  0.08173535  0.39457227  0.53052386     1.39100
O600        O  0.11295647  0.40881024  0.56152605    -1.23700
O601        O  0.37334153  0.82659758  0.56542377    -0.86000
O602        O  0.42135805  0.88152372  0.58301035    -0.83000
C603        C  0.43567670  0.91414410  0.58779439     0.97500
O604        O  0.41976760  0.94653813  0.58412109    -0.83100
O605        O  0.39027003  0.94854052  0.51847184    -0.85700
C606        C  0.37026569  0.94771245  0.99212292     1.02000
O607        O  0.34467515  0.92847965  0.99394172    -0.78500
O608        O  0.35911420  0.85306709  0.51607025    -0.78700
C609        C  0.36973172  0.82397208  0.53368781     1.01900
O610        O  0.33597737  0.86991421  0.60994171    -0.86000
O611        O  0.38535306  0.92059923  0.62982368    -0.83100
C612        C  0.37244756  0.95516532  0.62959145     0.97500
O613        O  0.35929992  0.96994354  0.60265428    -0.83100
O614        O  0.33233823  0.98018563  0.53831862    -0.85700
C615        C  0.30442726  0.96599372  0.53731867     1.02000
O616        O  0.30121707  0.93100873  0.54655998    -0.78500
O617        O  0.31173909  0.85294447  0.56104631    -0.78700
C618        C  0.31179480  0.85596781  0.59219456     1.01900
Cr619      Cr  0.37793407  0.87645516  0.59485672     1.93700
Cr620      Cr  0.37474143  0.95788923  0.56109911     1.93200
Cr621      Cr  0.33091967  0.89221172  0.53192196     1.39100
O622        O  0.36159495  0.90857513  0.56253981    -1.23700
O623        O  0.13267138  0.82388315  0.67546058    -0.86000
O624        O  0.08375677  0.87907289  0.65555689    -0.83000
C625        C  0.06882209  0.91170270  0.65049366     0.97500
O626        O  0.08409928  0.94406054  0.65466633    -0.83100
O627        O  0.11201221  0.94686777  0.72103786    -0.85700
C628        C  0.13312566  0.94524082  0.74625433     1.02000
O629        O  0.15929674  0.92644973  0.74470309    -0.78500
O630        O  0.14617635  0.85044126  0.72480858    -0.78700
C631        C  0.13590148  0.82138814  0.70724542     1.01900
O632        O  0.17073348  0.86681046  0.63170226    -0.86000
O633        O  0.12085825  0.91768940  0.61018544    -0.83100
C634        C  0.13332919  0.95217585  0.61087185     0.97500
O635        O  0.14472558  0.96752172  0.63802118    -0.83100
O636        O  0.16970989  0.97857464  0.70251289    -0.85700
C637        C  0.19808795  0.96485257  0.70425727     1.02000
O638        O  0.20259237  0.92966283  0.69576598    -0.78500
O639        O  0.19455430  0.85128200  0.68130079    -0.78700
C640        C  0.19505687  0.85374787  0.65023992     1.01900
Cr641      Cr  0.12801368  0.87372386  0.64553522     1.93700
Cr642      Cr  0.12839636  0.95561898  0.67887608     1.93200
Cr643      Cr  0.17342989  0.89031614  0.70947477     1.39100
O644        O  0.14284469  0.90621329  0.67807876    -1.23700
O645        O  0.16759314  0.13437509  0.88002596    -0.86000
O646        O  0.11861955  0.08441643  0.85847091    -0.83000
C647        C  0.13208578  0.05011007  0.85892044     0.97500
O648        O  0.14286736  0.03389770  0.88596850    -0.83100
O649        O  0.16882092  0.02161076  0.94974743    -0.85700
C650        C  0.19692494  0.03516638  0.95065306     1.02000
O651        O  0.20047306  0.07033373  0.94205483    -0.78500
O652        O  0.19163283  0.14907960  0.92946458    -0.78700
C653        C  0.19191187  0.14702556  0.89836503     1.01900
O654        O  0.12979746  0.17683038  0.92508998    -0.86000
O655        O  0.08119574  0.12285326  0.90480043    -0.83100
C656        C  0.06664611  0.09046076  0.89947357     0.97500
O657        O  0.08223058  0.05781085  0.90333178    -0.83100
O658        O  0.11108240  0.05347155  0.96979995    -0.85700
C659        C  0.13045627  0.05372543  0.49582911     1.02000
O660        O  0.15637454  0.07219112  0.49423742    -0.78500
O661        O  0.14421211  0.14916794  0.97399651    -0.83500
C662        C  0.13370381  0.17874953  0.95694068     1.01900
Cr663      Cr  0.12524752  0.12772264  0.89438405     1.93700
Cr664      Cr  0.12685791  0.04531363  0.92704909     1.93200
Cr665      Cr  0.17152928  0.10953039  0.95743748     1.39100
O666        O  0.14064647  0.09458068  0.92646595    -1.23700
O667        O  0.33107919  0.13755016  0.85614027    -0.86000
O668        O  0.38047986  0.08663822  0.87907634    -0.83000
C669        C  0.36732802  0.05261327  0.87880168     0.97500
O670        O  0.35561391  0.03701796  0.85181743    -0.83100
O671        O  0.33197257  0.02479382  0.78683751    -0.85700
C672        C  0.30371329  0.03896187  0.78437399     1.02000
O673        O  0.29933990  0.07453714  0.79187382    -0.78500
O674        O  0.30807290  0.15270771  0.80615951    -0.78700
C675        C  0.30692551  0.15024947  0.83711563     1.01900
O676        O  0.37008164  0.17915751  0.81283607    -0.86000
O677        O  0.41819331  0.12379032  0.83365524    -0.83100
C678        C  0.43250492  0.09084263  0.83920801     0.97500
O679        O  0.41694170  0.05870702  0.83569479    -0.83100
O680        O  0.39056064  0.05438707  0.76935984    -0.85700
C681        C  0.37049358  0.05783072  0.74338858     1.02000
O682        O  0.34411115  0.07636195  0.74421808    -0.78500
O683        O  0.35773974  0.15215719  0.76350422    -0.78700
C684        C  0.36775238  0.18128553  0.78112251     1.01900
Cr685      Cr  0.37394438  0.12991883  0.84313148     1.93700
Cr686      Cr  0.37300221  0.04733574  0.81107031     1.93200
Cr687      Cr  0.32944674  0.11306821  0.77864983     1.39100
O688        O  0.35923471  0.09707697  0.81078818    -1.23700
C689        C  0.27898653  0.16236497  0.88644388    -0.27000
C690        C  0.27705681  0.15971900  0.85159236    -0.15000
C691        C  0.24637510  0.16003449  0.83216500     0.35600
C692        C  0.21879052  0.15848451  0.84810444    -0.26400
C693        C  0.22096046  0.15734675  0.88306436    -0.15700
C694        C  0.25144271  0.16130272  0.90224133     0.36700
N695        N  0.25488057  0.16232097  0.93783871    -0.89900
H696        H  0.30222417  0.16319025  0.90184135     0.17800
H697        H  0.19548061  0.15649592  0.83298505     0.17800
N698        N  0.24322303  0.15969304  0.79644262    -0.88900
H699        H  0.26633272  0.18876019  0.94585932     0.35200
H700        H  0.26978462  0.13857486  0.94710337     0.40300
H701        H  0.25155201  0.18695696  0.78900267     0.39900
H702        H  0.21907878  0.15823428  0.78598739     0.34800
C703        C  0.01892703  0.05746678  0.86749404    -0.27000
C704        C  0.03193618  0.09076124  0.88545620    -0.15000
C705        C  0.01232504  0.12492862  0.88690191     0.35600
C706        C  0.47897028  0.12226341  0.87336028    -0.26400
C707        C  0.46683485  0.09015393  0.85344071    -0.15700
C708        C  0.48692433  0.05699117  0.84980480     0.36700
N709        N  0.47527458  0.02413318  0.82896547    -0.89900
H710        H  0.03398085  0.03148527  0.86534347     0.17800
H711        H  0.46359529  0.14753600  0.87696965     0.17800
N712        N  0.02447489  0.15968288  0.90466962    -0.88900
H713        H  0.99253089  0.00158302  0.83242920     0.35200
H714        H  0.47034178  0.03469143  0.80454764     0.40300
H715        H  0.01005479  0.16587323  0.92302893     0.39900
H716        H  0.02232530  0.18357919  0.88800466     0.34800
C717        C  0.21938548  0.01149235  0.74862647    -0.27000
C718        C  0.22522759  0.98632396  0.72248543    -0.15000
C719        C  0.25709516  0.97650639  0.71843576     0.35600
C720        C  0.28246175  0.99178296  0.74058595    -0.26400
C721        C  0.27660979  0.01715764  0.76655774    -0.15700
C722        C  0.24477744  0.02687537  0.77070886     0.36700
N723        N  0.23816014  0.05214972  0.79742823    -0.89900
H724        H  0.19500416  0.01818325  0.75274423     0.17800
H725        H  0.30685487  0.98506733  0.73650694     0.17800
N726        N  0.26381116  0.95134341  0.69168347    -0.88900
H727        H  0.22395257  0.03645203  0.81189033     0.35200
H728        H  0.22474502  0.07665763  0.78715056     0.40300
H729        H  0.27699933  0.92667581  0.70196171     0.39900
H730        H  0.27820397  0.96706017  0.67737136     0.34800
C731        C  0.15407032  0.96700963  0.80326924    -0.27000
C732        C  0.13048960  0.97104371  0.77540730    -0.15000
C733        C  0.10852724  0.00355400  0.77406105     0.35600
C734        C  0.11022565  0.03052616  0.80076193    -0.26400
C735        C  0.13365788  0.02595750  0.82870336    -0.15700
C736        C  0.15616392  0.99412758  0.82948539     0.36700
N737        N  0.18141053  0.98908819  0.85695328    -0.89900
H738        H  0.17168584  0.94305650  0.80454694     0.17800
H739        H  0.09269622  0.05452673  0.79990787     0.17800
N740        N  0.08485697  0.00992550  0.74546926    -0.88900
H741        H  0.20339048  0.98935143  0.84784032     0.35200
H742        H  0.17897853  0.96111901  0.86751357     0.40300
H743        H  0.08849366  0.03805094  0.73577888     0.39900
H744        H  0.06223476  0.01003361  0.75324805     0.34800
C745        C  0.10877599  0.97214167  0.55346699    -0.27000
C746        C  0.13276631  0.97720871  0.58082151    -0.15000
C747        C  0.15390829  0.00968581  0.58093771     0.35600
C748        C  0.15084939  0.03585887  0.55402401    -0.26400
C749        C  0.12754573  0.03034853  0.52617301    -0.15700
C750        C  0.10593828  0.99837255  0.52619840     0.36700
N751        N  0.08151252  0.99177162  0.49843422    -0.89900
H752        H  0.09186108  0.94808695  0.55338651     0.17800
H753        H  0.16778296  0.05996891  0.55458991     0.17800
N754        N  0.17899460  0.01610196  0.60820179    -0.88900
H755        H  0.05926686  0.99252180  0.50704656     0.35200
H756        H  0.08496534  0.96325276  0.48914037     0.40300
H757        H  0.17554641  0.04432191  0.61809109     0.39900
H758        H  0.20094337  0.01602738  0.59901016     0.34800
C759        C  0.21908248  0.98932884  0.50023209    -0.27000
C760        C  0.22493011  0.01390409  0.96839710    -0.15000
C761        C  0.25647126  0.02639244  0.96597821     0.35600
C762        C  0.28200611  0.01235922  0.98915584    -0.26400
C763        C  0.27650791  0.98592592  0.51835754    -0.15700
C764        C  0.24502997  0.97586159  0.52298979     0.36700
N765        N  0.23934588  0.95203708  0.55077625    -0.89900
H766        H  0.19492465  0.98301900  0.50489455     0.17800
H767        H  0.30621771  0.02141957  0.98690561     0.17800
N768        N  0.26234796  0.05377604  0.94037967    -0.88900
H769        H  0.22717195  0.92648914  0.54158906     0.35200
H770        H  0.22431851  0.96811549  0.56442833     0.40300
H771        H  0.25494697  0.04032740  0.91738605     0.39900
H772        H  0.28688580  0.05927811  0.94164196     0.34800
C773        C  0.34595062  0.97283968  0.93695302    -0.27000
C774        C  0.37236526  0.97283358  0.96232454    -0.15000
C775        C  0.39719336  0.00083111  0.96035289     0.35600
C776        C  0.39444815  0.02805485  0.93385432    -0.26400
C777        C  0.36760010  0.02819125  0.90908425    -0.15700
C778        C  0.34327371  0.00005910  0.91075565     0.36700
N779        N  0.31554061  0.99899278  0.88577618    -0.89900
H780        H  0.32649652  0.95220369  0.93770311     0.17800
H781        H  0.41383064  0.04855748  0.93218970     0.17800
N782        N  0.42548045  0.00256733  0.98453334    -0.88900
H783        H  0.29517317  0.00230802  0.89749006     0.35200
H784        H  0.31468728  0.97086366  0.87463663     0.40300
H785        H  0.43321352  0.98451107  0.49469238     0.39900
H786        H  0.41903393  0.01065747  0.00754665     0.34800
C787        C  0.35865740  0.01867985  0.65563750    -0.27000
C788        C  0.37381914  0.98088263  0.65963471    -0.15000
C789        C  0.39069139  0.97063475  0.69121202     0.35600
C790        C  0.39113674  0.99747059  0.71770332    -0.26400
C791        C  0.37501281  0.03446752  0.71362787    -0.15700
C792        C  0.35925062  0.04549566  0.68206746     0.36700
N793        N  0.34357125  0.08374312  0.67705402    -0.89900
H794        H  0.34600440  0.02770158  0.63164994     0.17800
H795        H  0.40304648  0.98849825  0.74204949     0.17800
N796        N  0.40722709  0.93331818  0.69743573    -0.88900
H797        H  0.33284200  0.08717124  0.65232984     0.35200
H798        H  0.36124839  0.10544326  0.68139805     0.40300
H799        H  0.42483976  0.93089670  0.68184338     0.39900
H800        H  0.39071254  0.91035683  0.69213932     0.34800
C801        C  0.25458522  0.84595406  0.65625384    -0.27000
C802        C  0.22484370  0.84418385  0.63574426    -0.15000
C803        C  0.22442367  0.83864355  0.60108058     0.35600
C804        C  0.25338680  0.83981663  0.58748226    -0.26400
C805        C  0.28290304  0.84570680  0.60776654    -0.15700
C806        C  0.28344848  0.84651844  0.64271121     0.36700
N807        N  0.31318331  0.84911835  0.66467394    -0.89900
H808        H  0.25550490  0.84925805  0.68292487     0.17800
H809        H  0.25263301  0.83804925  0.56073994     0.17800
N810        N  0.19454620  0.83298121  0.57966940    -0.88900
H811        H  0.31494634  0.82472969  0.68081123     0.35200
H812        H  0.31258353  0.87500843  0.67889429     0.40300
H813        H  0.18500278  0.80615571  0.58650373     0.39900
H814        H  0.19837912  0.82970111  0.55491513     0.34800
C815        C  0.48398940  0.87860359  0.61630890    -0.27000
C816        C  0.47035517  0.91388824  0.60164503    -0.15000
C817        C  0.48912484  0.94860059  0.60359817     0.35600
C818        C  0.01961456  0.94799466  0.62358231    -0.26400
C819        C  0.03401275  0.91219700  0.63654043    -0.15700
C820        C  0.01569151  0.87700801  0.63310368     0.36700
N821        N  0.02912807  0.83983154  0.64639582    -0.89900
H822        H  0.46975975  0.85187932  0.61525362     0.17800
H823        H  0.03347978  0.97504455  0.62557470     0.17800
N824        N  0.47636633  0.98490238  0.58797081    -0.88900
H825        H  0.01283648  0.81670991  0.64086592     0.35200
H826        H  0.03301060  0.84246813  0.67231743     0.40300
H827        H  0.47243826  0.97995358  0.56227780     0.39900
H828        H  0.99052037  0.00948480  0.59880337     0.34800
C829        C  0.12490025  0.25109100  0.52729559    -0.27000
C830        C  0.12407134  0.28761301  0.51076081    -0.15000
C831        C  0.13165014  0.28853025  0.97879378     0.35600
C832        C  0.13207022  0.25304341  0.96046942    -0.26400
C833        C  0.12896754  0.21610250  0.97547673    -0.15700
C834        C  0.12582317  0.21503232  0.50997790     0.36700
N835        N  0.12565463  0.17856685  0.52821352    -0.89900
H836        H  0.12397801  0.25031636  0.55382379     0.17800
H837        H  0.13566395  0.25444316  0.93459576     0.17800
N838        N  0.13540476  0.32563495  0.96250910    -0.88900
H839        H  0.10497657  0.17829315  0.53972765     0.35200
H840        H  0.14559701  0.17818905  0.54680985     0.40300
H841        H  0.11696814  0.32840781  0.94242402     0.39900
H842        H  0.15724736  0.32468688  0.95307824     0.34800
C843        C  0.38262717  0.21466440  0.73071857    -0.27000
C844        C  0.37440420  0.21818258  0.76315629    -0.15000
C845        C  0.36933785  0.25640606  0.77579831     0.35600
C846        C  0.37232352  0.28991951  0.75579399    -0.26400
C847        C  0.38031958  0.28644014  0.72329125    -0.15700
C848        C  0.38600926  0.24828889  0.71086075     0.36700
N849        N  0.39604039  0.24376732  0.67866087    -0.89900
H850        H  0.38666445  0.18536342  0.72081796     0.17800
H851        H  0.36833416  0.31920443  0.76574995     0.17800
N852        N  0.36054352  0.26119170  0.80852329    -0.88900
H853        H  0.39901556  0.21366632  0.67316049     0.35200
H854        H  0.41867631  0.25659975  0.67978477     0.40300
H855        H  0.33772639  0.24911167  0.80818465     0.39900
H856        H  0.35845426  0.29133972  0.81432077     0.34800
C857        C  0.23636253  0.45004698  0.61220596    -0.27000
C858        C  0.22159246  0.41347133  0.60324348    -0.15000
C859        C  0.23935098  0.37799229  0.61132850     0.35600
C860        C  0.27093983  0.37976266  0.62779790    -0.26400
C861        C  0.28580413  0.41627921  0.63662929    -0.15700
C862        C  0.26803566  0.45178848  0.62871867     0.36700
N863        N  0.28186154  0.48979329  0.63732647    -0.89900
H864        H  0.22318640  0.47771356  0.60673836     0.17800
H865        H  0.28399748  0.35202501  0.63330599     0.17800
N866        N  0.22551948  0.33986669  0.60318010    -0.88900
H867        H  0.26748151  0.50450662  0.65257927     0.35200
H868        H  0.28128320  0.50636205  0.61546734     0.40300
H869        H  0.22612261  0.32365116  0.62522832     0.39900
H870        H  0.23983272  0.32486028  0.58803766     0.34800
C871        C  0.00245426  0.34861809  0.58391861    -0.27000
C872        C  0.03231853  0.34722475  0.60438829    -0.15000
C873        C  0.03267438  0.34198091  0.63920946     0.35600
C874        C  0.00377085  0.34177958  0.65258906    -0.26400
C875        C  0.47554577  0.34857891  0.63352907    -0.15700
C876        C  0.47571155  0.34713224  0.59872591     0.36700
N877        N  0.44623306  0.34664091  0.57621032    -0.89900
H878        H  0.00135582  0.35190003  0.55722977     0.17800
H879        H  0.00480221  0.33976365  0.67935559     0.17800
N880        N  0.06183800  0.33747265  0.66191710    -0.88900
H881        H  0.44624404  0.32107887  0.56149524     0.35200
H882        H  0.44567952  0.37142277  0.56058547     0.40300
H883        H  0.07458541  0.36401729  0.66299407     0.39900
H884        H  0.07552591  0.31442077  0.65352390     0.34800
C885        C  0.37506457  0.71490149  0.50960553    -0.27000
C886        C  0.38045142  0.71516496  0.97627139    -0.15000
C887        C  0.37785190  0.75248665  0.96028942     0.35600
C888        C  0.37524381  0.78706062  0.97928542    -0.26400
C889        C  0.37543453  0.78670649  0.51567993    -0.15700
C890        C  0.37243177  0.74876550  0.52944780     0.36700
N891        N  0.36603273  0.74463294  0.56311426    -0.89900
H892        H  0.37298596  0.68577205  0.52044837     0.17800
H893        H  0.37340251  0.81551930  0.96661916     0.17800
N894        N  0.37819394  0.75545605  0.92501624    -0.88900
H895        H  0.36512438  0.71459168  0.56953855     0.35200
H896        H  0.34314431  0.75655595  0.56419726     0.40300
H897        H  0.40117935  0.74720688  0.92042265     0.39900
H898        H  0.37460967  0.78494707  0.91702815     0.34800
C899        C  0.35891740  0.49766119  0.77785812    -0.27000
C900        C  0.38331746  0.46850203  0.77807643    -0.15000
C901        C  0.40806890  0.46680858  0.80545517     0.35600
C902        C  0.40851693  0.49446309  0.83110613    -0.26400
C903        C  0.38447991  0.52383146  0.83086163    -0.15700
C904        C  0.35926255  0.52544776  0.80393900     0.36700
N905        N  0.33376005  0.55436805  0.80348397    -0.89900
H906        H  0.33995936  0.49959434  0.75684249     0.17800
H907        H  0.42791192  0.49253694  0.85173838     0.17800
N908        N  0.43313911  0.43728366  0.80741791    -0.88900
H909        H  0.31631389  0.55011177  0.78276586     0.35200
H910        H  0.34351250  0.58236934  0.80050803     0.40300
H911        H  0.43299199  0.42091931  0.82927631     0.39900
H912        H  0.45511019  0.45187082  0.80908276     0.34800
C913        C  0.40814595  0.53552394  0.55315703    -0.27000
C914        C  0.38308650  0.53351526  0.52640176    -0.15000
C915        C  0.35860770  0.50506986  0.52758641     0.35600
C916        C  0.36048409  0.47881842  0.55488238    -0.26400
C917        C  0.38580195  0.48085290  0.58128017    -0.15700
C918        C  0.40976129  0.50970107  0.58028433     0.36700
N919        N  0.43621698  0.51259571  0.60663803    -0.89900
H920        H  0.42732484  0.55666210  0.55280934     0.17800
H921        H  0.34162094  0.45742640  0.55598922     0.17800
N922        N  0.32989185  0.50120332  0.00408728    -0.88900
H923        H  0.43612933  0.54133764  0.61652541     0.35200
H924        H  0.45748762  0.50865737  0.59647932     0.40300
H925        H  0.31744165  0.52816552  0.00527962     0.39900
H926        H  0.31410318  0.47879119  0.00872926     0.34800
C927        C  0.47348242  0.49367685  0.50028814    -0.27000
C928        C  0.47854195  0.51399160  0.97456196    -0.15000
C929        C  0.51015863  0.52414920  0.97064831     0.35600
C930        C  0.03622400  0.51622165  0.99708683    -0.26400
C931        C  0.02976798  0.49077852  0.51928174    -0.15700
C932        C  0.99805097  0.48166367  0.52369022     0.36700
N933        N  0.99194869  0.45792210  0.55150531    -0.89900
H934        H  0.44903365  0.48788646  0.50421577     0.17800
H935        H  0.06047340  0.52552199  0.99526183     0.17800
N936        N  0.51637885  0.54762474  0.94287250    -0.88900
H937        H  0.46798233  0.45170245  0.55072424     0.35200
H938        H  0.00057890  0.47340633  0.57322640     0.40300
H939        H  0.53161229  0.53125891  0.92960974     0.39900
H940        H  0.02890201  0.58359165  0.96145116     0.34800
C941        C  0.12433221  0.74952527  0.77707625    -0.27000
C942        C  0.12772457  0.71250945  0.76214365    -0.15000
C943        C  0.13285118  0.71120291  0.72831128     0.35600
C944        C  0.13392351  0.74690782  0.71026653    -0.26400
C945        C  0.13029428  0.78398834  0.72522730    -0.15700
C946        C  0.12509869  0.78509910  0.75907520     0.36700
N947        N  0.12021287  0.82243408  0.77511655    -0.89900
H948        H  0.11980201  0.75071758  0.80266717     0.17800
H949        H  0.13855613  0.74578526  0.68470852     0.17800
N950        N  0.13729166  0.67365448  0.71243927    -0.88900
H951        H  0.11719716  0.81811641  0.79997503     0.35200
H952        H  0.09875543  0.83493804  0.76319180     0.40300
H953        H  0.15852165  0.66073297  0.72450742     0.39900
H954        H  0.14054624  0.67783386  0.68762915     0.34800
C955        C  0.09614864  0.50588073  0.91533965    -0.27000
C956        C  0.12282116  0.52999934  0.91375117    -0.15000
C957        C  0.15009764  0.52563899  0.93814780     0.35600
C958        C  0.14983968  0.49768249  0.96368311    -0.26400
C959        C  0.12315492  0.47311106  0.96496276    -0.15700
C960        C  0.09626112  0.47708347  0.93996514     0.36700
N961        N  0.06896778  0.45179645  0.93905474    -0.89900
H962        H  0.07525692  0.50832520  0.89639203     0.17800
H963        H  0.17068214  0.49525558  0.98263310     0.17800
N964        N  0.17869907  0.54789583  0.93694862    -0.88900
H965        H  0.06595834  0.43660987  0.91634810     0.35200
H966        H  0.04860869  0.46967366  0.93986447     0.40300
H967        H  0.17305733  0.57817658  0.93819653     0.39900
H968        H  0.18686248  0.54215986  0.91425618     0.34800
C969        C  0.09594508  0.52405496  0.69157709    -0.27000
C970        C  0.12289450  0.52491355  0.71637958    -0.15000
C971        C  0.14891622  0.49833256  0.71386397     0.35600
C972        C  0.14732289  0.47209150  0.68658812    -0.26400
C973        C  0.12057549  0.47213422  0.66173346    -0.15700
C974        C  0.09435049  0.49784800  0.66462085     0.36700
N975        N  0.06616281  0.49736458  0.63993756    -0.89900
H976        H  0.07550626  0.54339651  0.69344298     0.17800
H977        H  0.16759505  0.45273679  0.68398535     0.17800
N978        N  0.17685620  0.49796332  0.73877982    -0.88900
H979        H  0.04893991  0.51786952  0.64578909     0.35200
H980        H  0.05598565  0.46919679  0.64047018     0.40300
H981        H  0.18831614  0.52520415  0.73739059     0.39900
H982        H  0.19320613  0.47594439  0.73361671     0.34800
C983        C  0.23682612  0.62058714  0.86351237    -0.27000
C984        C  0.22169353  0.58414192  0.85541860    -0.15000
C985        C  0.23867557  0.54849866  0.86508292     0.35600
C986        C  0.27036400  0.55010897  0.88151792    -0.26400
C987        C  0.28564029  0.58667311  0.88906387    -0.15700
C988        C  0.26819994  0.62224684  0.88034140     0.36700
N989        N  0.28212451  0.66038309  0.88823432    -0.89900
H990        H  0.22412104  0.64839195  0.85719980     0.17800
H991        H  0.28315313  0.52240112  0.88801351     0.17800
N992        N  0.22403718  0.51053907  0.85835805    -0.88900
H993        H  0.26767113  0.67575844  0.90301795     0.35200
H994        H  0.28185178  0.67624385  0.86605603     0.40300
H995        H  0.22422167  0.49570468  0.88101029     0.39900
H996        H  0.23811913  0.49401231  0.84393543     0.34800
C997        C  0.50275380  0.65954750  0.83793624    -0.27000
C998        C  0.03484745  0.65930798  0.85759421    -0.15000
C999        C  0.03573226  0.65906959  0.89265076     0.35600
C1000       C  0.00698877  0.65890978  0.90657887    -0.26400
C1001       C  0.47427180  0.65491380  0.88625329    -0.15700
C1002       C  0.47369253  0.65925366  0.85143124     0.36700
N1003       N  0.44362436  0.66213672  0.82971999    -0.89900
H1004       H  0.50197175  0.66060953  0.81116987     0.17800
H1005       H  0.00827543  0.65606961  0.93332035     0.17800
N1006       N  0.06571520  0.65761708  0.91436383    -0.88900
H1007       H  0.44736773  0.66453314  0.80489034     0.35200
H1008       H  0.43232213  0.68858988  0.83550835     0.40300
H1009       H  0.06623129  0.63195649  0.92897607     0.39900
H1010       H  0.06666210  0.68229814  0.93016740     0.34800
C1011       C  0.03596645  0.49053741  0.74540634    -0.27000
C1012       C  0.02942753  0.51410164  0.77226476    -0.15000
C1013       C  0.99725982  0.52190382  0.77665566     0.35600
C1014       C  0.47174674  0.50897799  0.75301851    -0.26400
C1015       C  0.47798230  0.48498196  0.72625143    -0.15700
C1016       C  0.51019907  0.47511781  0.72300651     0.36700
N1017       N  0.51865798  0.45101144  0.69636125    -0.89900
H1018       H  0.06051878  0.48472420  0.74144685     0.17800
H1019       H  0.44722875  0.51558203  0.75670273     0.17800
N1020       N  0.98889595  0.54357759  0.80469245    -0.88900
H1021       H  0.50727160  0.46261097  0.67377843     0.35200
H1022       H  0.51113271  0.42190825  0.69923126     0.40300
H1023       H  0.99633676  0.57298839  0.80354885     0.39900
H1024       H  0.00064732  0.53035390  0.82645586     0.34800
O1025       O  0.58620618  0.63462672  0.35780901    -0.86000
O1026       O  0.63569858  0.58380061  0.37932611    -0.83000
C1027       C  0.62301617  0.54950869  0.37974276     0.97500
O1028       O  0.61074464  0.53363396  0.35303194    -0.83100
O1029       O  0.58548014  0.52071776  0.28839273    -0.85700
C1030       C  0.55723091  0.53469338  0.28708176     1.02000
O1031       O  0.55323271  0.56982064  0.29580306    -0.78500
O1032       O  0.56078984  0.64847815  0.30856155    -0.78700
C1033       C  0.56138678  0.64723036  0.33987106     1.01900
O1034       O  0.62325325  0.67569351  0.31217081    -0.86000
O1035       O  0.67217423  0.62047254  0.33214811    -0.83100
C1036       C  0.68684899  0.58787260  0.33855131     0.97500
O1037       O  0.67133572  0.55565718  0.33540829    -0.83100
O1038       O  0.64309842  0.55132768  0.26911775    -0.85700
C1039       C  0.62209607  0.55389081  0.24380969     1.02000
O1040       O  0.59577133  0.57223102  0.24567624    -0.78500
O1041       O  0.60824545  0.64836840  0.26337210    -0.78700
C1042       C  0.61915045  0.67755065  0.28033480     1.01900
Cr1043     Cr  0.62832519  0.62679125  0.34309920     1.93700
Cr1044     Cr  0.62690580  0.54393595  0.31160934     1.93200
Cr1045     Cr  0.58169625  0.60884245  0.28048123     1.39100
O1046       O  0.61279755  0.59359608  0.31151493    -1.23700
O1047       O  0.92098987  0.63640439  0.38086873    -0.86000
O1048       O  0.87204540  0.58626989  0.35979285    -0.83000
C1049       C  0.88538884  0.55199240  0.36027079     0.97500
O1050       O  0.89755324  0.53659782  0.38732021    -0.83100
O1051       O  0.92280682  0.52516082  0.45202060    -0.85700
C1052       C  0.95083765  0.53905837  0.45376757     1.02000
O1053       O  0.95450252  0.57400217  0.44467866    -0.78500
O1054       O  0.94515867  0.65218390  0.43006052    -0.78700
C1055       C  0.94528010  0.64958274  0.39889022     1.01900
O1056       O  0.88258287  0.67947452  0.42479452    -0.86000
O1057       O  0.83466493  0.62469147  0.40548322    -0.83100
C1058       C  0.82047460  0.59205895  0.40017665     0.97500
O1059       O  0.83642500  0.55969247  0.40440931    -0.83100
O1060       O  0.86466808  0.55602155  0.47094874    -0.85700
C1061       C  0.88638567  0.55807752  0.99747948     1.02000
O1062       O  0.91217521  0.57687788  0.99572881    -0.78500
O1063       O  0.89671760  0.65291870  0.47412831    -0.78700
C1064       C  0.88582045  0.68191341  0.45652280     1.01900
Cr1065     Cr  0.87864407  0.62986462  0.39508767     1.93700
Cr1066     Cr  0.88102409  0.54793996  0.42842828     1.93200
Cr1067     Cr  0.92477238  0.61326492  0.45868955     1.39100
O1068       O  0.89429281  0.59738288  0.42760651    -1.23700
O1069       O  0.88521437  0.32703087  0.17742436    -0.86000
O1070       O  0.83586955  0.38188608  0.15779326    -0.83000
C1071       C  0.82119225  0.41469662  0.15264965     0.97500
O1072       O  0.83654705  0.44689917  0.15689439    -0.83100
O1073       O  0.86539807  0.44977785  0.22311827    -0.85700
C1074       C  0.88687929  0.44702770  0.24807192     1.02000
O1075       O  0.91315699  0.42922409  0.24544932    -0.78500
O1076       O  0.90079029  0.35319607  0.22658839    -0.78700
C1077       C  0.88982013  0.32425222  0.20925421     1.01900
O1078       O  0.92233684  0.36981565  0.13225884    -0.86000
O1079       O  0.87247813  0.42034848  0.11138914    -0.83100
C1080       C  0.88525914  0.45466038  0.11160004     0.97500
O1081       O  0.89618553  0.47096274  0.13861484    -0.83100
O1082       O  0.92203113  0.48223772  0.20346461    -0.85700
C1083       C  0.95036969  0.46873253  0.20462739     1.02000
O1084       O  0.95476236  0.43392340  0.19516681    -0.78500
O1085       O  0.94752942  0.35512855  0.18136132    -0.78700
C1086       C  0.94730059  0.35768219  0.15023837     1.01900
Cr1087     Cr  0.88000353  0.37661277  0.14708155     1.93700
Cr1088     Cr  0.88081173  0.45877467  0.18029717     1.93200
Cr1089     Cr  0.92680104  0.39377996  0.20994746     1.39100
O1090       O  0.89535152  0.40931687  0.17928787    -1.23700
O1091       O  0.62525679  0.32416932  0.06518859    -0.86000
O1092       O  0.67412656  0.37826110  0.08425733    -0.83000
C1093       C  0.68827380  0.41071521  0.09074391     0.97500
O1094       O  0.67265771  0.44325689  0.08658380    -0.83100
O1095       O  0.64331723  0.44730100  0.02034598    -0.85700
C1096       C  0.62308016  0.44758491  0.49469333     1.02000
O1097       O  0.59734571  0.42905582  0.49693184    -0.78500
O1098       O  0.60857207  0.35152739  0.01660963    -0.78700
C1099       C  0.62028104  0.32231705  0.03338505     1.01900
O1100       O  0.58897784  0.36663871  0.11155397    -0.86000
O1101       O  0.63806451  0.41614810  0.13149962    -0.83100
C1102       C  0.62438610  0.45020364  0.13156440     0.97500
O1103       O  0.61268630  0.46686069  0.10490648    -0.83100
O1104       O  0.58625583  0.47985191  0.04072473    -0.85700
C1105       C  0.55810182  0.46669418  0.04004272     1.02000
O1106       O  0.55440780  0.43203251  0.04977399    -0.78500
O1107       O  0.56249399  0.35339320  0.06298136    -0.78700
C1108       C  0.56359181  0.35557756  0.09429841     1.01900
Cr1109     Cr  0.63054794  0.37312140  0.09576068     1.93700
Cr1110     Cr  0.62807097  0.45573451  0.06331618     1.93200
Cr1111     Cr  0.58246924  0.39192486  0.03397961     1.39100
O1112       O  0.61425079  0.40645774  0.06411841    -1.23700
O1113       O  0.87200195  0.82756213  0.06343983    -0.86000
O1114       O  0.91995262  0.88275383  0.08154670    -0.83000
C1115       C  0.93398045  0.91544251  0.08742910     0.97500
O1116       O  0.91760616  0.94757035  0.08472700    -0.83100
O1117       O  0.88864195  0.95135212  0.01889946    -0.85700
C1118       C  0.86783929  0.94823903  0.49557422     1.02000
O1119       O  0.84210312  0.92939511  0.49765255    -0.78500
O1120       O  0.85692845  0.85438563  0.01441095    -0.78700
C1121       C  0.86792191  0.82520257  0.03170886     1.01900
O1122       O  0.83489878  0.86950669  0.10882701    -0.86000
O1123       O  0.88372548  0.91981745  0.12922625    -0.83100
C1124       C  0.86963885  0.95356610  0.12966352     0.97500
O1125       O  0.85657268  0.96927102  0.10303570    -0.83100
O1126       O  0.83018915  0.98164693  0.03819213    -0.85700
C1127       C  0.80233345  0.96702089  0.03625641     1.02000
O1128       O  0.79941459  0.93219427  0.04587462    -0.78500
O1129       O  0.80956310  0.85437640  0.05993975    -0.78700
C1130       C  0.81009654  0.85702182  0.09123241     1.01900
Cr1131     Cr  0.87657678  0.87670407  0.09349365     1.93700
Cr1132     Cr  0.87257723  0.95906282  0.06141542     1.93200
Cr1133     Cr  0.82911094  0.89364998  0.03091290     1.39100
O1134       O  0.85985254  0.90945032  0.06174417    -1.23700
O1135       O  0.63066414  0.82516808  0.17485045    -0.86000
O1136       O  0.58210112  0.88055942  0.15526484    -0.83000
C1137       C  0.56748587  0.91336723  0.15005007     0.97500
O1138       O  0.58288187  0.94566533  0.15375915    -0.83100
O1139       O  0.61008844  0.95060684  0.22028666    -0.85700
C1140       C  0.63073639  0.94737472  0.24585369     1.02000
O1141       O  0.65644708  0.92757450  0.24439509    -0.78500
O1142       O  0.64284135  0.85162308  0.22437072    -0.78700
C1143       C  0.63277588  0.82269909  0.20650089     1.01900
O1144       O  0.66899248  0.86825022  0.13169290    -0.86000
O1145       O  0.61907013  0.91832722  0.10953173    -0.83100
C1146       C  0.63216385  0.95232907  0.10969835     0.97500
O1147       O  0.64365490  0.96808709  0.13672680    -0.83100
O1148       O  0.66822809  0.98018491  0.20183032    -0.85700
C1149       C  0.69647903  0.96590315  0.20450054     1.02000
O1150       O  0.70077732  0.93038698  0.19674611    -0.78500
O1151       O  0.69245938  0.85252283  0.18141610    -0.78700
C1152       C  0.69328939  0.85543587  0.15039103     1.01900
Cr1153     Cr  0.62621557  0.87499490  0.14521012     1.93700
Cr1154     Cr  0.62697921  0.95743679  0.17793971     1.93200
Cr1155     Cr  0.67090064  0.89136479  0.20956071     1.39100
O1156       O  0.64091357  0.90767230  0.17777089    -1.23700
O1157       O  0.66864582  0.13282295  0.38360526    -0.86000
O1158       O  0.61882571  0.08394984  0.36099835    -0.83000
C1159       C  0.63188260  0.04951078  0.36070588     0.97500
O1160       O  0.64325606  0.03272669  0.38742019    -0.83100
O1161       O  0.66843336  0.01865025  0.45187859    -0.85700
C1162       C  0.69662961  0.03193901  0.45350957     1.02000
O1163       O  0.70062113  0.06709410  0.44514644    -0.78500
O1164       O  0.69276643  0.14603020  0.43335400    -0.78700
C1165       C  0.69325886  0.14421957  0.40230193     1.01900
O1166       O  0.63069503  0.17473808  0.42882039    -0.86000
O1167       O  0.58149447  0.12130594  0.40745435    -0.83100
C1168       C  0.56712233  0.08876331  0.40171796     0.97500
O1169       O  0.58285341  0.05625897  0.40517949    -0.83100
O1170       O  0.61077581  0.05033761  0.47149368    -0.85700
C1171       C  0.63030420  0.05234958  0.99345959     1.02000
O1172       O  0.65601692  0.07132462  0.99190247    -0.78500
O1173       O  0.64493241  0.14659828  0.47751549    -0.83500
C1174       C  0.63465991  0.17642294  0.46066503     1.01900
Cr1175     Cr  0.62590385  0.12630410  0.39753658     1.93700
Cr1176     Cr  0.62705483  0.04314487  0.42885444     1.93200
Cr1177     Cr  0.67187130  0.10660971  0.46059578     1.39100
O1178       O  0.64100447  0.09244698  0.42922643    -1.23700
O1179       O  0.83339033  0.13470413  0.35926547    -0.86000
O1180       O  0.88207163  0.08226379  0.37965942    -0.83000
C1181       C  0.86850054  0.04845070  0.37905709     0.97500
O1182       O  0.85693921  0.03319758  0.35182661    -0.83100
O1183       O  0.83078609  0.02461441  0.28688189    -0.85700
C1184       C  0.80275365  0.03953935  0.28496513     1.02000
O1185       O  0.79913182  0.07486996  0.29367571    -0.78500
O1186       O  0.80977790  0.15228125  0.31019481    -0.78700
C1187       C  0.80897190  0.14809842  0.34106736     1.01900
O1188       O  0.87225420  0.17741425  0.31581852    -0.86000
O1189       O  0.91944289  0.12013709  0.33398605    -0.83100
C1190       C  0.93359863  0.08697567  0.33866061     0.97500
O1191       O  0.91774039  0.05508165  0.33417839    -0.83100
O1192       O  0.88896461  0.05383889  0.26779440    -0.85700
C1193       C  0.86786039  0.05784226  0.24264941     1.02000
O1194       O  0.84238069  0.07751260  0.24511663    -0.78500
O1195       O  0.85818061  0.15232209  0.26610437    -0.78700
C1196       C  0.86927634  0.18067293  0.28410601     1.01900
Cr1197     Cr  0.87571585  0.12683200  0.34484054     1.93700
Cr1198     Cr  0.87291368  0.04537161  0.31040999     1.93200
Cr1199     Cr  0.82960716  0.11328377  0.28096210     1.39100
O1200       O  0.85978258  0.09536071  0.31198287    -1.23700
C1201       C  0.78113914  0.15575691  0.39113425    -0.27000
C1202       C  0.77919890  0.15630195  0.35620713    -0.15000
C1203       C  0.74849265  0.15880349  0.33687572     0.35600
C1204       C  0.72083052  0.15703056  0.35270037    -0.26400
C1205       C  0.72286447  0.15351910  0.38751006    -0.15700
C1206       C  0.75351454  0.15441067  0.40684578     0.36700
N1207       N  0.75698011  0.15204554  0.44240567    -0.89900
H1208       H  0.80437886  0.15446721  0.40654382     0.17800
H1209       H  0.69747126  0.15705286  0.33752738     0.17800
N1210       N  0.74531228  0.16114262  0.30120864    -0.88900
H1211       H  0.76937030  0.17717208  0.45216805     0.35200
H1212       H  0.77105861  0.12697445  0.45001772     0.40300
H1213       H  0.75425099  0.18867918  0.29521775     0.39900
H1214       H  0.72113622  0.16102891  0.29072383     0.34800
C1215       C  0.51996367  0.05378560  0.37089701    -0.27000
C1216       C  0.53250072  0.08826073  0.38745785    -0.15000
C1217       C  0.51248523  0.12221856  0.38741746     0.35600
C1218       C  0.98045659  0.11925801  0.37155981    -0.26400
C1219       C  0.96804230  0.08606665  0.35314460    -0.15700
C1220       C  0.98796480  0.05221309  0.35138277     0.36700
N1221       N  0.97617673  0.01799949  0.33236010    -0.89900
H1222       H  0.53518745  0.02765126  0.37027172     0.17800
H1223       H  0.96536335  0.14518318  0.37385090     0.17800
N1224       N  0.52386647  0.15772162  0.40453232    -0.88900
H1225       H  0.49427886  0.99490937  0.33939072     0.35200
H1226       H  0.97154403  0.02661341  0.30738974     0.40300
H1227       H  0.50887662  0.16434495  0.42228315     0.39900
H1228       H  0.52184278  0.18101566  0.38728744     0.34800
C1229       C  0.71793779  0.01507263  0.24698648    -0.27000
C1230       C  0.72375884  0.98759534  0.22242317    -0.15000
C1231       C  0.75560667  0.97611111  0.21972125     0.35600
C1232       C  0.78089389  0.99156377  0.24187043    -0.26400
C1233       C  0.77513009  0.01889196  0.26654405    -0.15700
C1234       C  0.74329192  0.03081372  0.26900056     0.36700
N1235       N  0.73655619  0.05877656  0.29383978    -0.89900
H1236       H  0.69354728  0.02337769  0.24996992     0.17800
H1237       H  0.80524996  0.98312055  0.23886936     0.17800
N1238       N  0.76242452  0.94879120  0.19445584    -0.88900
H1239       H  0.72123670  0.04535835  0.30848215     0.35200
H1240       H  0.72424735  0.08302759  0.28173267     0.40300
H1241       H  0.77470458  0.92431239  0.20623213     0.39900
H1242       H  0.77768345  0.96272239  0.17998556     0.34800
C1243       C  0.65403322  0.97015210  0.30194762    -0.27000
C1244       C  0.62832310  0.97204152  0.27585756    -0.15000
C1245       C  0.60408114  0.00144451  0.27714001     0.35600
C1246       C  0.60633381  0.02822958  0.30409437    -0.26400
C1247       C  0.63226992  0.02609295  0.32992173    -0.15700
C1248       C  0.65635822  0.99674703  0.32853749     0.36700
N1249       N  0.68343682  0.99369712  0.35426592    -0.89900
H1250       H  0.67318528  0.94840024  0.30152735     0.17800
H1251       H  0.58725756  0.04991055  0.30529672     0.17800
N1252       N  0.57720449  0.00442025  0.25127236    -0.88900
H1253       H  0.70437145  0.99622920  0.34341357     0.35200
H1254       H  0.68349709  0.96534550  0.36485103     0.40300
H1255       H  0.57684080  0.03301352  0.24109106     0.39900
H1256       H  0.55626711  0.00108372  0.26203254     0.34800
C1257       C  0.60848299  0.97080408  0.05149931    -0.27000
C1258       C  0.63231711  0.97612927  0.07901545    -0.15000
C1259       C  0.65426636  0.00755195  0.07845037     0.35600
C1260       C  0.65161862  0.03321461  0.05120185    -0.26400
C1261       C  0.62794237  0.02815557  0.02357490    -0.15700
C1262       C  0.60613038  0.99641051  0.02379561     0.36700
N1263       N  0.58193043  0.98949439  0.99588088    -0.89900
H1264       H  0.59124332  0.94715401  0.05167844     0.17800
H1265       H  0.66899064  0.05678459  0.05148872     0.17800
N1266       N  0.67973773  0.01341798  0.10541647    -0.88900
H1267       H  0.55955408  0.99067702  0.00420086     0.35200
H1268       H  0.58532812  0.96073860  0.98704362     0.40300
H1269       H  0.67725328  0.04204091  0.11492323     0.39900
H1270       H  0.70156340  0.01190916  0.09598642     0.34800
C1271       C  0.71757630  0.98722103  0.99452719    -0.27000
C1272       C  0.72404851  0.01063077  0.47210648    -0.15000
C1273       C  0.75573092  0.02101178  0.46844160     0.35600
C1274       C  0.78107701  0.00847267  0.49241258    -0.26400
C1275       C  0.77450728  0.98607517  0.01598671    -0.15700
C1276       C  0.74291179  0.97364730  0.01801526     0.36700
N1277       N  0.73637362  0.94747921  0.04402142    -0.89900
H1278       H  0.69330873  0.97890355  0.99734746     0.17800
H1279       H  0.80542732  0.01588567  0.48921080     0.17800
N1280       N  0.76194744  0.04450743  0.44052858    -0.88900
H1281       H  0.72557359  0.92193894  0.03301694     0.35200
H1282       H  0.71987819  0.96162766  0.05720751     0.40300
H1283       H  0.75447156  0.02816636  0.41893850     0.39900
H1284       H  0.78655691  0.04913455  0.44132953     0.34800
C1285       C  0.84589255  0.96943128  0.43812352    -0.27000
C1286       C  0.87033337  0.97269595  0.46538510    -0.15000
C1287       C  0.89379332  0.00273822  0.46441440     0.35600
C1288       C  0.89219590  0.02794675  0.43666694    -0.26400
C1289       C  0.86771218  0.02441245  0.40960315    -0.15700
C1290       C  0.84425806  0.99484374  0.41061930     0.36700
N1291       N  0.81830589  0.99073440  0.38388231    -0.89900
H1292       H  0.82730112  0.94744391  0.43826735     0.17800
H1293       H  0.91060085  0.05009483  0.43609208     0.17800
N1294       N  0.91930680  0.00907914  0.49118561    -0.88900
H1295       H  0.79673480  0.99422284  0.39354938     0.35200
H1296       H  0.81914845  0.96183413  0.37445574     0.40300
H1297       H  0.93337567  0.98119410  0.99173518     0.39900
H1298       H  0.90950320  0.01689041  0.51256953     0.34800
C1299       C  0.84447042  0.00556131  0.16019090    -0.27000
C1300       C  0.86940199  0.97738411  0.16026806    -0.15000
C1301       C  0.89497165  0.97733670  0.18688647     0.35600
C1302       C  0.89489613  0.00521108  0.21260377    -0.26400
C1303       C  0.86993989  0.03365149  0.21236044    -0.15700
C1304       C  0.84465172  0.03401892  0.18533831     0.36700
N1305       N  0.81898739  0.06297526  0.18345182    -0.89900
H1306       H  0.82482216  0.00602091  0.13977253     0.17800
H1307       H  0.91432185  0.00408716  0.23321217     0.17800
N1308       N  0.92159493  0.95014558  0.18820149    -0.88900
H1309       H  0.80183784  0.05813771  0.16257046     0.35200
H1310       H  0.82883616  0.09084906  0.18017652     0.40300
H1311       H  0.93241988  0.95390201  0.16684932     0.39900
H1312       H  0.91296627  0.92110177  0.18856657     0.34800
C1313       C  0.75301871  0.85024898  0.15612337    -0.27000
C1314       C  0.72326318  0.84659662  0.13593891    -0.15000
C1315       C  0.72277196  0.84005574  0.10137096     0.35600
C1316       C  0.75162518  0.84105281  0.08752209    -0.26400
C1317       C  0.78118136  0.84802387  0.10738112    -0.15700
C1318       C  0.78177988  0.85100385  0.14233274     0.36700
N1319       N  0.81142065  0.85613293  0.16403595    -0.89900
H1320       H  0.75395714  0.85481216  0.18267016     0.17800
H1321       H  0.75075281  0.83806496  0.06084330     0.17800
N1322       N  0.69287274  0.83344850  0.08025370    -0.88900
H1323       H  0.81388954  0.83304552  0.18147907     0.35200
H1324       H  0.81016231  0.88301424  0.17679123     0.40300
H1325       H  0.68365607  0.80670027  0.08768477     0.39900
H1326       H  0.69658234  0.82959868  0.05551769     0.34800
C1327       C  0.98459236  0.87864374  0.10871723    -0.27000
C1328       C  0.96888212  0.91537119  0.10107794    -0.15000
C1329       C  0.98596973  0.95078752  0.10960965     0.35600
C1330       C  0.52020783  0.94796731  0.11828462    -0.26400
C1331       C  0.53298661  0.91403836  0.13593180    -0.15700
C1332       C  0.51352638  0.88021430  0.13683504     0.36700
N1333       N  0.52539909  0.84547936  0.15555346    -0.89900
H1334       H  0.97181649  0.85124410  0.10253256     0.17800
H1335       H  0.53509976  0.97382878  0.11706207     0.17800
N1336       N  0.97117391  0.98901960  0.10164372    -0.88900
H1337       H  0.50818824  0.82310269  0.15322954     0.35200
H1338       H  0.52926450  0.85348793  0.18069217     0.40300
H1339       H  0.96733239  0.99160731  0.07570831     0.39900
H1340       H  0.49371964  0.00589076  0.08504660     0.34800
C1341       C  0.62151845  0.24832112  0.02911052    -0.27000
C1342       C  0.62531018  0.28535641  0.01462168    -0.15000
C1343       C  0.63064018  0.28650358  0.48064584     0.35600
C1344       C  0.63130887  0.25054357  0.46310258    -0.26400
C1345       C  0.63018831  0.21392021  0.47917804    -0.15700
C1346       C  0.62154138  0.21317242  0.01037863     0.36700
N1347       N  0.61630871  0.17601947  0.02590238    -0.89900
H1348       H  0.61736223  0.24664567  0.05480043     0.17800
H1349       H  0.63350782  0.25140829  0.43684670     0.17800
N1350       N  0.63257599  0.32314795  0.46307166    -0.88900
H1351       H  0.59413716  0.17770708  0.03463029     0.35200
H1352       H  0.63416907  0.17219205  0.04639392     0.40300
H1353       H  0.61332204  0.32455046  0.44371760     0.39900
H1354       H  0.65384288  0.32269889  0.45256032     0.34800
C1355       C  0.88077416  0.21506056  0.23258803    -0.27000
C1356       C  0.87668026  0.21784333  0.26649411    -0.15000
C1357       C  0.87690887  0.25587443  0.28120572     0.35600
C1358       C  0.88075409  0.28978173  0.26175214    -0.26400
C1359       C  0.88416445  0.28699485  0.22764956    -0.15700
C1360       C  0.88469496  0.24892819  0.21318559     0.36700
N1361       N  0.88977677  0.24455330  0.17909925    -0.89900
H1362       H  0.88096877  0.18603896  0.22096761     0.17800
H1363       H  0.88068814  0.31881974  0.27336952     0.17800
N1364       N  0.87257967  0.26021716  0.31551533    -0.88900
H1365       H  0.88894164  0.21458596  0.17210729     0.35200
H1366       H  0.91305823  0.25402204  0.17742914     0.40300
H1367       H  0.84919930  0.25150943  0.31761841     0.39900
H1368       H  0.87419963  0.29009948  0.32269639     0.34800
C1369       C  0.74057297  0.44501232  0.10340409    -0.27000
C1370       C  0.72230490  0.41099611  0.10649910    -0.15000
C1371       C  0.73587139  0.37942824  0.12712518     0.35600
C1372       C  0.76799946  0.38160429  0.14228653    -0.26400
C1373       C  0.78659471  0.41525805  0.13850920    -0.15700
C1374       C  0.77244357  0.44762992  0.11912679     0.36700
N1375       N  0.79049394  0.48282419  0.11484025    -0.89900
H1376       H  0.72999444  0.46966076  0.08830980     0.17800
H1377       H  0.77847878  0.35699791  0.15749171     0.17800
N1378       N  0.71682339  0.34580073  0.13348570    -0.88900
H1379       H  0.77618351  0.50417553  0.10081808     0.35200
H1380       H  0.80856092  0.47487993  0.10088853     0.40300
H1381       H  0.69882000  0.35617167  0.14678325     0.39900
H1382       H  0.73047170  0.32522865  0.14892867     0.34800
C1383       C  0.50505148  0.34159419  0.09035275    -0.27000
C1384       C  0.53459701  0.34752313  0.11059868    -0.15000
C1385       C  0.53477764  0.34971494  0.14571475     0.35600
C1386       C  0.50586676  0.34813197  0.15898197    -0.26400
C1387       C  0.97693285  0.34909682  0.13513231    -0.15700
C1388       C  0.97669079  0.34750572  0.10027485     0.36700
N1389       N  0.94702312  0.34765194  0.07804541    -0.89900
H1390       H  0.50406339  0.33931044  0.06360957     0.17800
H1391       H  0.50655226  0.35159720  0.18562086     0.17800
N1392       N  0.56354136  0.35500835  0.16875071    -0.88900
H1393       H  0.94653305  0.32214081  0.06321466     0.35200
H1394       H  0.94662337  0.37248021  0.06250158     0.40300
H1395       H  0.57327345  0.38272963  0.16469679     0.39900
H1396       H  0.57988224  0.33226348  0.16524274     0.34800
C1397       C  0.87706526  0.71624513  0.00891238    -0.27000
C1398       C  0.87919281  0.71885715  0.47465771    -0.15000
C1399       C  0.88026114  0.75704036  0.46070196     0.35600
C1400       C  0.87779830  0.79061768  0.48092843    -0.26400
C1401       C  0.87379663  0.78804420  0.01354535    -0.15700
C1402       C  0.87353559  0.75021055  0.02828404     0.36700
N1403       N  0.86898853  0.74617694  0.06254672    -0.89900
H1404       H  0.87701386  0.68731661  0.02064157     0.17800
H1405       H  0.87887574  0.81987958  0.47000424     0.17800
N1406       N  0.88433810  0.76178844  0.42637526    -0.88900
H1407       H  0.87017944  0.71626497  0.06969091     0.35200
H1408       H  0.84568051  0.75606839  0.06452310     0.40300
H1409       H  0.90736297  0.75143988  0.42376814     0.39900
H1410       H  0.88350666  0.79190178  0.41981092     0.34800
C1411       C  0.86113288  0.50181995  0.27660100    -0.27000
C1412       C  0.88428366  0.47096151  0.27822334    -0.15000
C1413       C  0.90793058  0.46791947  0.30655777     0.35600
C1414       C  0.90857226  0.49638174  0.33171573    -0.26400
C1415       C  0.88550151  0.52718332  0.33021891    -0.15700
C1416       C  0.86131198  0.52978881  0.30244694     0.36700
N1417       N  0.83689467  0.56030594  0.30066754    -0.89900
H1418       H  0.84315592  0.50469723  0.25478751     0.17800
H1419       H  0.92711889  0.49399906  0.35310614     0.17800
N1420       N  0.93150044  0.43625114  0.30965319    -0.88900
H1421       H  0.82298224  0.55470904  0.31948185     0.35200
H1422       H  0.82140219  0.55855340  0.27817179     0.40300
H1423       H  0.91938003  0.40955189  0.31139081     0.39900
H1424       H  0.94757938  0.43896337  0.33167946     0.34800
C1425       C  0.91056550  0.53120657  0.05254717    -0.27000
C1426       C  0.88378371  0.53351112  0.02759642    -0.15000
C1427       C  0.85750784  0.50804540  0.02985729     0.35600
C1428       C  0.85934991  0.48011825  0.05608236    -0.26400
C1429       C  0.88613094  0.47834326  0.08094697    -0.15700
C1430       C  0.91186875  0.50433424  0.07899903     0.36700
N1431       N  0.93966987  0.50340807  0.10392902    -0.89900
H1432       H  0.93117049  0.54987558  0.05135991     0.17800
H1433       H  0.83929769  0.46074432  0.05777991     0.17800
N1434       N  0.83057484  0.50599353  0.50257113    -0.88900
H1435       H  0.94221357  0.53159533  0.11484360     0.35200
H1436       H  0.95978146  0.49783568  0.09220270     0.40300
H1437       H  0.81792657  0.53282309  0.50371263     0.39900
H1438       H  0.81490922  0.48341400  0.50713720     0.34800
C1439       C  0.97375148  0.49035903  0.99902982    -0.27000
C1440       C  0.97824456  0.51866280  0.47317312    -0.15000
C1441       C  0.00994120  0.52813369  0.46907307     0.35600
C1442       C  0.53641288  0.51158788  0.49192883    -0.26400
C1443       C  0.53041652  0.48723820  0.02100669    -0.15700
C1444       C  0.49874040  0.47710448  0.02507011     0.36700
N1445       N  0.49275971  0.45294338  0.05270073    -0.89900
H1446       H  0.94938999  0.48131271  0.00057513     0.17800
H1447       H  0.56076480  0.51746557  0.48768104     0.17800
N1448       N  0.01634270  0.55139506  0.44123167    -0.88900
H1449       H  0.96764636  0.44159396  0.04484121     0.35200
H1450       H  0.50077051  0.46857662  0.07454140     0.40300
H1451       H  0.03114372  0.53465078  0.42776184     0.39900
H1452       H  0.53049991  0.57385027  0.45003416     0.34800
C1453       C  0.61660254  0.75143550  0.27485240    -0.27000
C1454       C  0.62424952  0.71457156  0.26178154    -0.15000
C1455       C  0.63232611  0.71302235  0.22897389     0.35600
C1456       C  0.63330289  0.74839179  0.21052803    -0.26400
C1457       C  0.62624682  0.78534219  0.22392232    -0.15700
C1458       C  0.61692022  0.78663929  0.25614890     0.36700
N1459       N  0.60738988  0.82378454  0.26965473    -0.89900
H1460       H  0.60916385  0.75261301  0.29930608     0.17800
H1461       H  0.64064899  0.74721563  0.18603038     0.17800
N1462       N  0.63977514  0.67552992  0.21454240    -0.88900
H1463       H  0.60119618  0.81969787  0.29344766     0.35200
H1464       H  0.58660550  0.83375007  0.25455476     0.40300
H1465       H  0.66072453  0.66423945  0.22852679     0.39900
H1466       H  0.64483233  0.67945650  0.19029422     0.34800
C1467       C  0.60245000  0.49294868  0.40896896    -0.27000
C1468       C  0.62366689  0.52519793  0.41039760    -0.15000
C1469       C  0.64671197  0.52960987  0.43909423     0.35600
C1470       C  0.64734580  0.50267262  0.46559802    -0.26400
C1471       C  0.62569057  0.47084698  0.46415589    -0.15700
C1472       C  0.60355782  0.46568285  0.43503114     0.36700
N1473       N  0.58205329  0.43271838  0.43160947    -0.89900
H1474       H  0.58483419  0.48832304  0.38712319     0.17800
H1475       H  0.66446749  0.50734504  0.48780541     0.17800
N1476       N  0.67007055  0.56048853  0.44193948    -0.88900
H1477       H  0.58610676  0.41633912  0.41065960     0.35200
H1478       H  0.55854502  0.44394811  0.42741547     0.40300
H1479       H  0.65809291  0.58799310  0.44029466     0.39900
H1480       H  0.68347849  0.55777694  0.42225365     0.34800
C1481       C  0.59758432  0.52562584  0.19018627    -0.27000
C1482       C  0.62506651  0.52944235  0.21396435    -0.15000
C1483       C  0.65242464  0.50527238  0.21115568     0.35600
C1484       C  0.65109239  0.47712547  0.18528903    -0.26400
C1485       C  0.62334762  0.47335520  0.16203461    -0.15700
C1486       C  0.59630314  0.49773611  0.16458332     0.36700
N1487       N  0.56764657  0.49428093  0.14076627    -0.89900
H1488       H  0.57639839  0.54364040  0.19203369     0.17800
H1489       H  0.67215740  0.45930829  0.18241236     0.17800
N1490       N  0.68140758  0.50938473  0.23430007    -0.88900
H1491       H  0.54984608  0.51423125  0.14617280     0.35200
H1492       H  0.55874425  0.46563814  0.14284644     0.40300
H1493       H  0.69035579  0.53775797  0.23094818     0.39900
H1494       H  0.69895599  0.48907403  0.22889504     0.34800
C1495       C  0.73624395  0.62473504  0.36124160    -0.27000
C1496       C  0.72145125  0.58804941  0.35305445    -0.15000
C1497       C  0.73925980  0.55269491  0.36157978     0.35600
C1498       C  0.77103047  0.55475042  0.37773249    -0.26400
C1499       C  0.78581274  0.59147163  0.38588696    -0.15700
C1500       C  0.76790097  0.62682193  0.37749467     0.36700
N1501       N  0.78160369  0.66512222  0.38518974    -0.89900
H1502       H  0.72307013  0.65233424  0.35542076     0.17800
H1503       H  0.78426959  0.52720339  0.38356870     0.17800
N1504       N  0.72536946  0.51450126  0.35395842    -0.88900
H1505       H  0.76732692  0.68025959  0.40029935     0.35200
H1506       H  0.78078880  0.68105607  0.36297744     0.40300
H1507       H  0.72611924  0.49867418  0.37621751     0.39900
H1508       H  0.73959046  0.49920173  0.33889315     0.34800
C1509       C  0.00249715  0.66043911  0.33460419    -0.27000
C1510       C  0.53245364  0.65798077  0.35567774    -0.15000
C1511       C  0.53355385  0.65887304  0.39072465     0.35600
C1512       C  0.50495624  0.65971264  0.40483970    -0.26400
C1513       C  0.97443947  0.65933156  0.38341605    -0.15700
C1514       C  0.97359026  0.66069449  0.34833984     0.36700
N1515       N  0.94343518  0.66088141  0.32663717    -0.89900
H1516       H  0.00152468  0.65900194  0.30782383     0.17800
H1517       H  0.50642746  0.65768062  0.43164928     0.17800
N1518       N  0.56362893  0.65760151  0.41228151    -0.88900
H1519       H  0.94702027  0.66099002  0.30168034     0.35200
H1520       H  0.93154125  0.68755423  0.33067599     0.40300
H1521       H  0.56401004  0.63244929  0.42746749     0.39900
H1522       H  0.56489500  0.68279320  0.42753173     0.34800
C1523       C  0.53514455  0.49259362  0.24008599    -0.27000
C1524       C  0.52980874  0.51414471  0.26846232    -0.15000
C1525       C  0.49796886  0.52150064  0.27446606     0.35600
C1526       C  0.97201440  0.50813208  0.25364067    -0.26400
C1527       C  0.97738903  0.48915267  0.22404235    -0.15700
C1528       C  0.00911436  0.48373809  0.21725639     0.36700
N1529       N  0.01617853  0.46576360  0.18707015    -0.89900
H1530       H  0.55934147  0.48775092  0.23462408     0.17800
H1531       H  0.94785444  0.51125700  0.25970869     0.17800
N1532       N  0.49068910  0.54254694  0.30326562    -0.88900
H1533       H  0.00259078  0.48023358  0.16692276     0.35200
H1534       H  0.01008731  0.43573663  0.18674451     0.40300
H1535       H  0.49737476  0.57223279  0.30187721     0.39900
H1536       H  0.50357564  0.52939765  0.32448845     0.34800
O1537       O  0.58698099  0.63484673  0.86095302    -0.86000
O1538       O  0.63656533  0.58437201  0.88270084    -0.83000
C1539       C  0.62306521  0.55067996  0.88340347     0.97500
O1540       O  0.61066352  0.53462909  0.85685765    -0.83100
O1541       O  0.58455491  0.52080575  0.79278780    -0.85700
C1542       C  0.55637414  0.53526688  0.79092976     1.02000
O1543       O  0.55267542  0.57072901  0.79895306    -0.78500
O1544       O  0.56185995  0.64908080  0.81168275    -0.78700
C1545       C  0.56206358  0.64701117  0.84290987     1.01900
O1546       O  0.62413347  0.67530773  0.81495683    -0.86000
O1547       O  0.67273325  0.61995410  0.83477902    -0.83100
C1548       C  0.68731678  0.58720159  0.84073650     0.97500
O1549       O  0.67151997  0.55510396  0.83813936    -0.83100
O1550       O  0.64219712  0.54917533  0.77208654    -0.85700
C1551       C  0.62109994  0.55205943  0.74683160     1.02000
O1552       O  0.59517123  0.57127466  0.74876816    -0.78500
O1553       O  0.60925751  0.64758618  0.76632260    -0.78700
C1554       C  0.62040369  0.67681266  0.78313638     1.01900
Cr1555     Cr  0.62903501  0.62674961  0.84606245     1.93700
Cr1556     Cr  0.62655217  0.54353235  0.81513471     1.93200
Cr1557     Cr  0.58198602  0.60881983  0.78356392     1.39100
O1558       O  0.61304789  0.59338540  0.81464489    -1.23700
O1559       O  0.92366734  0.63577007  0.88264757    -0.86000
O1560       O  0.87492767  0.58552824  0.86065326    -0.83000
C1561       C  0.88809454  0.55113207  0.86137492     0.97500
O1562       O  0.89945725  0.53567230  0.88866384    -0.83100
O1563       O  0.92406410  0.52460156  0.95353814    -0.85700
C1564       C  0.95210601  0.53858820  0.95560031     1.02000
O1565       O  0.95571948  0.57359226  0.94666900    -0.78500
O1566       O  0.94682969  0.65175228  0.93220210    -0.78700
C1567       C  0.94756935  0.64922022  0.90115007     1.01900
O1568       O  0.88421199  0.67881373  0.92551290    -0.86000
O1569       O  0.83632908  0.62418352  0.90503421    -0.83100
C1570       C  0.82208229  0.59153445  0.89988957     0.97500
O1571       O  0.83792377  0.55913706  0.90490333    -0.83100
O1572       O  0.86563243  0.55547154  0.97192975    -0.85700
C1573       C  0.88555721  0.55869529  0.49633858     1.02000
O1574       O  0.91140235  0.57731652  0.49434912    -0.78500
O1575       O  0.89759553  0.65263198  0.97513199    -0.78700
C1576       C  0.88710032  0.68157229  0.95720898     1.01900
Cr1577     Cr  0.88081658  0.62919097  0.89587682     1.93700
Cr1578     Cr  0.88241019  0.54737138  0.92951694     1.93200
Cr1579     Cr  0.92586712  0.61282349  0.96027360     1.39100
O1580       O  0.89576664  0.59683961  0.92877416    -1.23700
O1581       O  0.88295093  0.32798865  0.67503919    -0.86000
O1582       O  0.83529883  0.38508112  0.65797084    -0.83000
C1583       C  0.82124342  0.41826536  0.65307486     0.97500
O1584       O  0.83727360  0.45001830  0.65702116    -0.83100
O1585       O  0.86663195  0.45111322  0.72290546    -0.85700
C1586       C  0.88795494  0.44730031  0.74786195     1.02000
O1587       O  0.91357388  0.42783488  0.74542260    -0.78500
O1588       O  0.89801427  0.35323530  0.72458067    -0.78700
C1589       C  0.88669200  0.32491069  0.70676924     1.01900
O1590       O  0.92041548  0.37057823  0.63061495    -0.86000
O1591       O  0.87158007  0.42303236  0.61111058    -0.83100
C1592       C  0.88540131  0.45668101  0.61150009     0.97500
O1593       O  0.89760413  0.47174315  0.63858741    -0.83100
O1594       O  0.92413809  0.48074266  0.70348531    -0.85700
C1595       C  0.95206726  0.46569226  0.70536424     1.02000
O1596       O  0.95554858  0.43092967  0.69537733    -0.78500
O1597       O  0.94529300  0.35325718  0.67930149    -0.78700
C1598       C  0.94499551  0.35670475  0.64815518     1.01900
Cr1599     Cr  0.87864040  0.37844374  0.64599044     1.93700
Cr1600     Cr  0.88210767  0.45982072  0.68020388     1.93200
Cr1601     Cr  0.92592730  0.39224077  0.70904149     1.39100
O1602       O  0.89518904  0.40990762  0.67854482    -1.23700
O1603       O  0.62675249  0.32615866  0.56506848    -0.86000
O1604       O  0.67485918  0.38122431  0.58439347    -0.83000
C1605       C  0.68868444  0.41392205  0.59081577     0.97500
O1606       O  0.67281070  0.44629002  0.58646835    -0.83100
O1607       O  0.64407950  0.45099421  0.51997856    -0.85700
C1608       C  0.62159006  0.44540356  0.99561303     1.02000
O1609       O  0.59554449  0.42769952  0.99833249    -0.78500
O1610       O  0.61231338  0.35328794  0.51610952    -0.78700
C1611       C  0.62307432  0.32393908  0.53331026     1.01900
O1612       O  0.58897375  0.36879981  0.60980538    -0.86000
O1613       O  0.63810732  0.41833183  0.63112392    -0.83100
C1614       C  0.62425634  0.45220846  0.63148146     0.97500
O1615       O  0.61235139  0.46890136  0.60483190    -0.83100
O1616       O  0.58623571  0.48113539  0.53992566    -0.85700
C1617       C  0.55820148  0.46718508  0.53796847     1.02000
O1618       O  0.55453632  0.43198143  0.54648202    -0.78500
O1619       O  0.56444778  0.35378576  0.56070373    -0.78700
C1620       C  0.56426496  0.35684686  0.59179213     1.01900
Cr1621     Cr  0.63111490  0.37547458  0.59522523     1.93700
Cr1622     Cr  0.62819176  0.45821107  0.56295797     1.93200
Cr1623     Cr  0.58439669  0.39288256  0.53222123     1.39100
O1624       O  0.61506229  0.40856877  0.56327125    -1.23700
O1625       O  0.87291665  0.82614557  0.56535278    -0.86000
O1626       O  0.92075700  0.88135499  0.58439381    -0.83000
C1627       C  0.93474751  0.91410646  0.58996969     0.97500
O1628       O  0.91846787  0.94627272  0.58681348    -0.83100
O1629       O  0.88904234  0.95020978  0.52071460    -0.85700
C1630       C  0.86759199  0.94961398  0.99370331     1.02000
O1631       O  0.84189588  0.93047888  0.99539588    -0.78500
O1632       O  0.85756051  0.85342586  0.51648553    -0.78700
C1633       C  0.86861007  0.82408559  0.53355051     1.01900
O1634       O  0.83548049  0.86762735  0.61092878    -0.86000
O1635       O  0.88401748  0.91834303  0.63188926    -0.83100
C1636       C  0.87013675  0.95230576  0.63215358     0.97500
O1637       O  0.85762724  0.96807309  0.60535309    -0.83100
O1638       O  0.83105789  0.98018275  0.54093018    -0.85700
C1639       C  0.80322981  0.96566322  0.53940056     1.02000
O1640       O  0.80026414  0.93074055  0.54879542    -0.78500
O1641       O  0.81046718  0.85253410  0.56193931    -0.78700
C1642       C  0.81091224  0.85475518  0.59320545     1.01900
Cr1643     Cr  0.87723675  0.87520104  0.59585823     1.93700
Cr1644     Cr  0.87342441  0.95767884  0.56365480     1.93200
Cr1645     Cr  0.82977504  0.89237499  0.53328480     1.39100
O1646       O  0.86065326  0.90804483  0.56406419    -1.23700
O1647       O  0.63192175  0.82403442  0.67728895    -0.86000
O1648       O  0.58318086  0.87911095  0.65690126    -0.83000
C1649       C  0.56842489  0.91172315  0.65108470     0.97500
O1650       O  0.58368322  0.94406647  0.65522889    -0.83100
O1651       O  0.61107729  0.94774577  0.72177551    -0.85700
C1652       C  0.63212594  0.94607369  0.74705519     1.02000
O1653       O  0.65819198  0.92705009  0.74567855    -0.78500
O1654       O  0.64526242  0.85097415  0.72649534    -0.78700
C1655       C  0.63490670  0.82186190  0.70906275     1.01900
O1656       O  0.67008807  0.86644990  0.63339725    -0.86000
O1657       O  0.62041654  0.91696585  0.61131922    -0.83100
C1658       C  0.63310741  0.95128424  0.61176827     0.97500
O1659       O  0.64429724  0.96707638  0.63881062    -0.83100
O1660       O  0.66890515  0.97919616  0.70328628    -0.85700
C1661       C  0.69733927  0.96555189  0.70541316     1.02000
O1662       O  0.70185903  0.93014776  0.69742209    -0.78500
O1663       O  0.69397503  0.85159512  0.68312441    -0.78700
C1664       C  0.69443713  0.85370678  0.65203051     1.01900
Cr1665     Cr  0.62740391  0.87352325  0.64705061     1.93700
Cr1666     Cr  0.62773939  0.95586150  0.67965436     1.93200
Cr1667     Cr  0.67259997  0.89075012  0.71098531     1.39100
O1668       O  0.64216790  0.90639140  0.67935366    -1.23700
O1669       O  0.66594577  0.13596207  0.88042617    -0.86000
O1670       O  0.61674225  0.08626767  0.85808306    -0.83000
C1671       C  0.63093421  0.05264156  0.85752404     0.97500
O1672       O  0.64253835  0.03555764  0.88400317    -0.83100
O1673       O  0.66749695  0.02048948  0.94829382    -0.85700
C1674       C  0.69552441  0.03441949  0.95047683     1.02000
O1675       O  0.69913993  0.06985916  0.94255831    -0.78500
O1676       O  0.68989378  0.14875552  0.93037482    -0.78700
C1677       C  0.69035564  0.14773985  0.89924146     1.01900
O1678       O  0.62777449  0.17645301  0.92591783    -0.86000
O1679       O  0.57962565  0.12198170  0.90538191    -0.83100
C1680       C  0.56553443  0.08935518  0.89937825     0.97500
O1681       O  0.58151747  0.05700209  0.90176576    -0.83100
O1682       O  0.60939096  0.04995381  0.96806385    -0.85700
C1683       C  0.63176494  0.05237058  0.49682781     1.02000
O1684       O  0.65798034  0.07007824  0.49504284    -0.78500
O1685       O  0.64173385  0.14781174  0.97441418    -0.83500
C1686       C  0.63124043  0.17765996  0.95769917     1.01900
Cr1687     Cr  0.62350330  0.12815951  0.89473429     1.93700
Cr1688     Cr  0.62589204  0.04441518  0.92534950     1.93200
Cr1689     Cr  0.66954616  0.10864050  0.95767095     1.39100
O1690       O  0.63911720  0.09409521  0.92615298    -1.23700
O1691       O  0.83098630  0.13976342  0.85850933    -0.86000
O1692       O  0.88033448  0.08843357  0.88087862    -0.83000
C1693       C  0.86702391  0.05450090  0.88050351     0.97500
O1694       O  0.85570273  0.03882344  0.85346397    -0.83100
O1695       O  0.82987073  0.02767815  0.78918131    -0.85700
C1696       C  0.80178702  0.04267246  0.78661686     1.02000
O1697       O  0.79820080  0.07810294  0.79491612    -0.78500
O1698       O  0.80817684  0.15610861  0.80884467    -0.78700
C1699       C  0.80683346  0.15293533  0.83970874     1.01900
O1700       O  0.87004828  0.18104453  0.81459603    -0.86000
O1701       O  0.91807758  0.12539111  0.83526795    -0.83100
C1702       C  0.93248857  0.09233632  0.83985422     0.97500
O1703       O  0.91677426  0.06023612  0.83579867    -0.83100
O1704       O  0.88821501  0.05588828  0.76948441    -0.85700
C1705       C  0.86711933  0.05867619  0.74422886     1.02000
O1706       O  0.84150546  0.07840054  0.74611956    -0.78500
O1707       O  0.85708488  0.15396988  0.76535005    -0.78700
C1708       C  0.86738550  0.18309079  0.78282542     1.01900
Cr1709     Cr  0.87381979  0.13179581  0.84500129     1.93700
Cr1710     Cr  0.87198351  0.04931975  0.81221371     1.93200
Cr1711     Cr  0.82847656  0.11577480  0.78098814     1.39100
O1712       O  0.85862731  0.09922166  0.81258285    -1.23700
C1713       C  0.77809856  0.16252976  0.88900565    -0.27000
C1714       C  0.77670854  0.16185103  0.85414676    -0.15000
C1715       C  0.74619135  0.16381544  0.83437006     0.35600
C1716       C  0.71822732  0.16135377  0.84974033    -0.26400
C1717       C  0.71982805  0.15836968  0.88457728    -0.15700
C1718       C  0.75019412  0.16112779  0.90427106     0.36700
N1719       N  0.75312861  0.16065705  0.93984688    -0.89900
H1720       H  0.80116074  0.16224946  0.90476190     0.17800
H1721       H  0.69505953  0.16041676  0.83423912     0.17800
N1722       N  0.74356275  0.16647293  0.79875844    -0.88900
H1723       H  0.76479370  0.18660876  0.94881759     0.35200
H1724       H  0.76761721  0.13633973  0.94861148     0.40300
H1725       H  0.75262530  0.19407125  0.79310916     0.39900
H1726       H  0.71948498  0.16647109  0.78792509     0.34800
C1727       C  0.51865649  0.05670280  0.86627142    -0.27000
C1728       C  0.53090336  0.08907711  0.88593415    -0.15000
C1729       C  0.51060377  0.12195509  0.88967219     0.35600
C1730       C  0.98044125  0.12496705  0.87107701    -0.26400
C1731       C  0.96730592  0.09162350  0.85336305    -0.15700
C1732       C  0.98705836  0.05771825  0.85106699     0.36700
N1733       N  0.97498445  0.02398715  0.83157674    -0.89900
H1734       H  0.53419105  0.03155843  0.86280124     0.17800
H1735       H  0.96569504  0.15122660  0.87329432     0.17800
N1736       N  0.52179008  0.15491755  0.91037420    -0.88900
H1737       H  0.49306702  0.00210015  0.82905995     0.35200
H1738       H  0.97010474  0.03326591  0.80676477     0.40300
H1739       H  0.50698319  0.15802352  0.92884304     0.39900
H1740       H  0.51929698  0.18066569  0.89576943     0.34800
C1741       C  0.71811137  0.02000775  0.74331994    -0.27000
C1742       C  0.72452639  0.98791908  0.72303543    -0.15000
C1743       C  0.75639571  0.97372877  0.72439123     0.35600
C1744       C  0.78074575  0.99035745  0.74700044    -0.26400
C1745       C  0.77431888  0.02195682  0.76775333    -0.15700
C1746       C  0.74263673  0.03733840  0.76537566     0.36700
N1747       N  0.73519785  0.07090262  0.78483026    -0.89900
H1748       H  0.69378126  0.03118170  0.74280582     0.17800
H1749       H  0.80507325  0.97927195  0.74731249     0.17800
N1750       N  0.76429851  0.94253934  0.70274751    -0.88900
H1751       H  0.71732181  0.06279123  0.79880056     0.35200
H1752       H  0.72570478  0.09338770  0.76841261     0.40300
H1753       H  0.77482356  0.91905488  0.71746812     0.39900
H1754       H  0.78134876  0.95329619  0.68873429     0.34800
C1755       C  0.65749937  0.97667246  0.79938986    -0.27000
C1756       C  0.62991576  0.97265661  0.77577541    -0.15000
C1757       C  0.60334048  0.99844857  0.77756912     0.35600
C1758       C  0.60482818  0.02707129  0.80301413    -0.26400
C1759       C  0.63230968  0.03018372  0.82674521    -0.15700
C1760       C  0.65898736  0.00510568  0.82450372     0.36700
N1761       N  0.68758850  0.00795572  0.84824585    -0.89900
H1762       H  0.67854216  0.95812049  0.79820858     0.17800
H1763       H  0.58392554  0.04555025  0.80511823     0.17800
N1764       N  0.57473173  0.99556456  0.75395949    -0.88900
H1765       H  0.70695639  0.01290621  0.83537704     0.35200
H1766       H  0.69152741  0.98055695  0.86039918     0.40300
H1767       H  0.57052559  0.02310293  0.74208106     0.39900
H1768       H  0.55555949  0.98999124  0.76700123     0.34800
C1769       C  0.60842759  0.97193919  0.55463712    -0.27000
C1770       C  0.63312915  0.97564386  0.58151537    -0.15000
C1771       C  0.65553034  0.00663408  0.58122247     0.35600
C1772       C  0.65303559  0.03274570  0.55433816    -0.26400
C1773       C  0.62887055  0.02877101  0.52702280    -0.15700
C1774       C  0.60601800  0.99826919  0.52745924     0.36700
N1775       N  0.58062075  0.99343035  0.50031469    -0.89900
H1776       H  0.59053419  0.94909660  0.55499053     0.17800
H1777       H  0.67091413  0.05571709  0.55460778     0.17800
N1778       N  0.68114226  0.01175926  0.60820258    -0.88900
H1779       H  0.55878483  0.99575864  0.50966264     0.35200
H1780       H  0.58246022  0.96473910  0.49071995     0.40300
H1781       H  0.67880796  0.04017571  0.61820940     0.39900
H1782       H  0.70292146  0.01050868  0.59873620     0.34800
C1783       C  0.71849256  0.98633449  0.49869606    -0.27000
C1784       C  0.72310609  0.01308744  0.96893413    -0.15000
C1785       C  0.75476375  0.02440874  0.96606672     0.35600
C1786       C  0.78009024  0.01108426  0.98981179    -0.26400
C1787       C  0.77548547  0.98485415  0.51940950    -0.15700
C1788       C  0.74390149  0.97330350  0.52229532     0.36700
N1789       N  0.73751336  0.94847351  0.54921219    -0.89900
H1790       H  0.69420401  0.97884875  0.50212611     0.17800
H1791       H  0.80441187  0.01930576  0.98720923     0.17800
N1792       N  0.76094162  0.04984387  0.93929710    -0.88900
H1793       H  0.72641887  0.92263067  0.53909493     0.35200
H1794       H  0.72127282  0.96344416  0.56211582     0.40300
H1795       H  0.75341332  0.03500188  0.91696599     0.39900
H1796       H  0.78555275  0.05473793  0.94034843     0.34800
C1797       C  0.84463922  0.97405480  0.93777841    -0.27000
C1798       C  0.86990958  0.97531765  0.96429927    -0.15000
C1799       C  0.89391765  0.00478208  0.96366554     0.35600
C1800       C  0.89171538  0.03181719  0.93708861    -0.26400
C1801       C  0.86629432  0.03029232  0.91081757    -0.15700
C1802       C  0.84256218  0.00098086  0.91137659     0.36700
N1803       N  0.81614765  0.99823281  0.88496746    -0.89900
H1804       H  0.82577048  0.95238455  0.93761611     0.17800
H1805       H  0.91053755  0.05341794  0.93653999     0.17800
N1806       N  0.92082936  0.00831740  0.98937885    -0.88900
H1807       H  0.79484513  0.00070063  0.89522367     0.35200
H1808       H  0.81687116  0.96997472  0.87427155     0.40300
H1809       H  0.93287535  0.98284558  0.49535977     0.39900
H1810       H  0.91260406  0.01551574  0.01176290     0.34800
C1811       C  0.84551830  0.00640922  0.66132173    -0.27000
C1812       C  0.86934074  0.97646088  0.66270740    -0.15000
C1813       C  0.89341213  0.97481327  0.69075935     0.35600
C1814       C  0.89313568  0.00298452  0.71631506    -0.26400
C1815       C  0.86947565  0.03334053  0.71455227    -0.15700
C1816       C  0.84558737  0.03511350  0.68631929     0.36700
N1817       N  0.82131906  0.06595249  0.68295111    -0.89900
H1818       H  0.82688621  0.00814430  0.63997098     0.17800
H1819       H  0.91138141  0.00065130  0.73795667     0.17800
N1820       N  0.91872717  0.94561675  0.69377410    -0.88900
H1821       H  0.80514265  0.06232308  0.66113111     0.35200
H1822       H  0.83281192  0.09299812  0.68058763     0.40300
H1823       H  0.93121839  0.94836218  0.67346171     0.39900
H1824       H  0.90852925  0.91735378  0.69332205     0.34800
C1825       C  0.75393465  0.84651782  0.65781208    -0.27000
C1826       C  0.72416500  0.84406626  0.63749486    -0.15000
C1827       C  0.72360085  0.83794145  0.60287351     0.35600
C1828       C  0.75249232  0.83866452  0.58910722    -0.26400
C1829       C  0.78207273  0.84500576  0.60913198    -0.15700
C1830       C  0.78270412  0.84701458  0.64411181     0.36700
N1831       N  0.81238123  0.85108332  0.66595877    -0.89900
H1832       H  0.75492899  0.85054333  0.68442553     0.17800
H1833       H  0.75162729  0.83622769  0.56239091     0.17800
N1834       N  0.69363189  0.83223555  0.58162720    -0.88900
H1835       H  0.81455373  0.82740416  0.68283685     0.35200
H1836       H  0.81132748  0.87753047  0.67938307     0.40300
H1837       H  0.68398993  0.80559248  0.58875291     0.39900
H1838       H  0.69733158  0.82861095  0.55687819     0.34800
C1839       C  0.98399076  0.87843152  0.61661872    -0.27000
C1840       C  0.96954446  0.91418505  0.60377775    -0.15000
C1841       C  0.98777958  0.94938493  0.60715559     0.35600
C1842       C  0.52059054  0.94738097  0.62086670    -0.26400
C1843       C  0.53402909  0.91218843  0.63602315    -0.15700
C1844       C  0.51531511  0.87736122  0.63364067     0.36700
N1845       N  0.52792572  0.84082457  0.64898983    -0.89900
H1846       H  0.97019194  0.85132793  0.61461229     0.17800
H1847       H  0.53491524  0.97402288  0.62185576     0.17800
N1848       N  0.97413847  0.98639297  0.59375225    -0.88900
H1849       H  0.51138166  0.81785799  0.64412811     0.35200
H1850       H  0.53121146  0.84523181  0.67474287     0.40300
H1851       H  0.96980429  0.98343681  0.56785244     0.39900
H1852       H  0.49312332  0.00771351  0.59208972     0.34800
C1853       C  0.62755466  0.24973896  0.53141293    -0.27000
C1854       C  0.62840344  0.28637121  0.51523561    -0.15000
C1855       C  0.62953613  0.28687271  0.98056484     0.35600
C1856       C  0.62983441  0.25169524  0.96191764    -0.26400
C1857       C  0.62611697  0.21463452  0.97643888    -0.15700
C1858       C  0.62825159  0.21374007  0.51385621     0.36700
N1859       N  0.62646062  0.17707246  0.53144656    -0.89900
H1860       H  0.62534976  0.24890789  0.55767117     0.17800
H1861       H  0.63391884  0.25341307  0.93620461     0.17800
N1862       N  0.63391957  0.32413710  0.96477870    -0.88900
H1863       H  0.60525168  0.17745658  0.54206886     0.35200
H1864       H  0.64577925  0.17571364  0.55072809     0.40300
H1865       H  0.61570686  0.32749932  0.94454036     0.39900
H1866       H  0.65589759  0.32299568  0.95563240     0.34800
C1867       C  0.88069220  0.21618541  0.73163626    -0.27000
C1868       C  0.87387551  0.21987075  0.76460542    -0.15000
C1869       C  0.86994408  0.25819598  0.77758249     0.35600
C1870       C  0.87315170  0.29164849  0.75757861    -0.26400
C1871       C  0.87998099  0.28799455  0.72464425    -0.15700
C1872       C  0.88396718  0.24969531  0.71164458     0.36700
N1873       N  0.89207137  0.24485191  0.67864597    -0.89900
H1874       H  0.88365455  0.18681713  0.72136379     0.17800
H1875       H  0.87020381  0.32101595  0.76786082     0.17800
N1876       N  0.86202981  0.26316591  0.81064394    -0.88900
H1877       H  0.89370065  0.21466506  0.67272504     0.35200
H1878       H  0.91496853  0.25650507  0.67857083     0.40300
H1879       H  0.83905337  0.25177326  0.81081029     0.39900
H1880       H  0.86064735  0.29335397  0.81661007     0.34800
C1881       C  0.74055815  0.44915458  0.60447458    -0.27000
C1882       C  0.72262316  0.41461434  0.60679815    -0.15000
C1883       C  0.73647322  0.38264134  0.62676275     0.35600
C1884       C  0.76830913  0.38528397  0.64246448    -0.26400
C1885       C  0.78664023  0.41932006  0.63930408    -0.15700
C1886       C  0.77242790  0.45185253  0.62024596     0.36700
N1887       N  0.79047954  0.48709501  0.61610272    -0.89900
H1888       H  0.72982242  0.47399767  0.58973727     0.17800
H1889       H  0.77891183  0.36043481  0.65729428     0.17800
N1890       N  0.71808339  0.34790085  0.63167815    -0.88900
H1891       H  0.77607700  0.50859952  0.60239487     0.35200
H1892       H  0.80838801  0.47932550  0.60183735     0.40300
H1893       H  0.69975454  0.35670534  0.64509932     0.39900
H1894       H  0.73207741  0.32691922  0.64642989     0.34800
C1895       C  0.50499200  0.34706090  0.58582954    -0.27000
C1896       C  0.53452993  0.34908507  0.60684446    -0.15000
C1897       C  0.53423617  0.34796384  0.64185744     0.35600
C1898       C  0.50502708  0.34704224  0.65454066    -0.26400
C1899       C  0.97409703  0.34723091  0.63237287    -0.15700
C1900       C  0.97355998  0.34877579  0.59744479     0.36700
N1901       N  0.94379836  0.35175044  0.57547151    -0.89900
H1902       H  0.50438023  0.34751907  0.55906005     0.17800
H1903       H  0.50554000  0.34776128  0.68129331     0.17800
N1904       N  0.56296126  0.34885440  0.66548862    -0.88900
H1905       H  0.94251405  0.32764391  0.55904300     0.35200
H1906       H  0.94398470  0.37788186  0.56155365     0.40300
H1907       H  0.57401090  0.37635046  0.66412769     0.39900
H1908       H  0.57834062  0.32587547  0.66003445     0.34800
C1909       C  0.87497019  0.71543546  0.50843589    -0.27000
C1910       C  0.88040869  0.71886026  0.97485811    -0.15000
C1911       C  0.88007510  0.75668611  0.95993429     0.35600
C1912       C  0.87677818  0.79071322  0.97939986    -0.26400
C1913       C  0.87410421  0.78716267  0.51486007    -0.15700
C1914       C  0.87215370  0.74898589  0.52854130     0.36700
N1915       N  0.86658505  0.74425381  0.56242827    -0.89900
H1916       H  0.87374879  0.68619037  0.51935190     0.17800
H1917       H  0.87671225  0.81968593  0.96771730     0.17800
N1918       N  0.88355684  0.76064766  0.92538167    -0.88900
H1919       H  0.86639780  0.71410380  0.56874562     0.35200
H1920       H  0.84357649  0.75541710  0.56407917     0.40300
H1921       H  0.90682505  0.75132716  0.92270187     0.39900
H1922       H  0.88164680  0.79052140  0.91808726     0.34800
C1923       C  0.86930838  0.50849497  0.77395283    -0.27000
C1924       C  0.88603260  0.47185003  0.77771909    -0.15000
C1925       C  0.90465835  0.46261841  0.80844828     0.35600
C1926       C  0.90577914  0.48984370  0.83469458    -0.26400
C1927       C  0.88864957  0.52630459  0.83121642    -0.15700
C1928       C  0.87073136  0.53587618  0.80022905     0.36700
N1929       N  0.85408307  0.57326531  0.79514689    -0.89900
H1930       H  0.85589663  0.51668184  0.75008104     0.17800
H1931       H  0.92001470  0.48210090  0.85823700     0.17800
N1932       N  0.92247828  0.42574628  0.81291029    -0.88900
H1933       H  0.82976097  0.56761815  0.78766822     0.35200
H1934       H  0.86282748  0.58806643  0.77572000     0.40300
H1935       H  0.90592870  0.40263944  0.81071962     0.39900
H1936       H  0.93534070  0.42383636  0.83690186     0.34800
C1937       C  0.90863184  0.53524915  0.55275569    -0.27000
C1938       C  0.88287367  0.53465555  0.52666981    -0.15000
C1939       C  0.85786117  0.50700851  0.52825534     0.35600
C1940       C  0.85993083  0.48010315  0.55519677    -0.26400
C1941       C  0.88584110  0.48095402  0.58106353    -0.15700
C1942       C  0.91031565  0.50903464  0.57965896     0.36700
N1943       N  0.93726257  0.51096432  0.60553661    -0.89900
H1944       H  0.92823876  0.55568253  0.55209599     0.17800
H1945       H  0.84073139  0.45926073  0.55652030     0.17800
N1946       N  0.82902666  0.51058286  0.00573790    -0.88900
H1947       H  0.93776741  0.53952744  0.61583457     0.35200
H1948       H  0.95819095  0.50692169  0.59485561     0.40300
H1949       H  0.81851917  0.53855469  0.00837243     0.39900
H1950       H  0.81223888  0.48960539  0.01080450     0.34800
C1951       C  0.97258352  0.49559491  0.50047372    -0.27000
C1952       C  0.97963248  0.51795072  0.97478603    -0.15000
C1953       C  0.01124520  0.53087511  0.97383038     0.35600
C1954       C  0.53575015  0.51092703  0.99394779    -0.26400
C1955       C  0.53074302  0.48820949  0.51904649    -0.15700
C1956       C  0.49893514  0.47922211  0.52338736     0.36700
N1957       N  0.49267404  0.45540062  0.55111118    -0.89900
H1958       H  0.94817798  0.48950297  0.50436799     0.17800
H1959       H  0.55999000  0.51783337  0.98994400     0.17800
N1960       N  0.01817743  0.55873815  0.94918028    -0.88900
H1961       H  0.96728753  0.45434971  0.55136108     0.35200
H1962       H  0.50093482  0.47098849  0.57288076     0.40300
H1963       H  0.03479348  0.54557993  0.93557129     0.39900
H1964       H  0.52849375  0.57318419  0.95207966     0.34800
C1965       C  0.62175125  0.75075333  0.77891763    -0.27000
C1966       C  0.62621043  0.71362122  0.76456486    -0.15000
C1967       C  0.63229521  0.71205240  0.73102332     0.35600
C1968       C  0.63342822  0.74753297  0.71275030    -0.26400
C1969       C  0.62894784  0.78469886  0.72715561    -0.15700
C1970       C  0.62262262  0.78615143  0.76062029     0.36700
N1971       N  0.61670916  0.82364805  0.77591506    -0.89900
H1972       H  0.61637583  0.75213127  0.80420929     0.17800
H1973       H  0.63884854  0.74619001  0.68747341     0.17800
N1974       N  0.63763615  0.67442533  0.71565998    -0.88900
H1975       H  0.61278513  0.81961060  0.80054284     0.35200
H1976       H  0.59546552  0.83564823  0.76306637     0.40300
H1977       H  0.65878095  0.66200547  0.72836445     0.39900
H1978       H  0.64146355  0.67839275  0.69099263     0.34800
C1979       C  0.59871657  0.49808695  0.91326666    -0.27000
C1980       C  0.62266580  0.52704961  0.91412103    -0.15000
C1981       C  0.64745742  0.52763153  0.94152630     0.35600
C1982       C  0.64762822  0.49949064  0.96708111    -0.26400
C1983       C  0.62372430  0.47023355  0.96584342    -0.15700
C1984       C  0.59931712  0.46951072  0.93821525     0.36700
N1985       N  0.57501720  0.43969820  0.93509337    -0.89900
H1986       H  0.57953019  0.49679825  0.89242284     0.17800
H1987       H  0.66638294  0.50100902  0.98828995     0.17800
N1988       N  0.67306942  0.55558777  0.94380032    -0.88900
H1989       H  0.57596635  0.42418991  0.91290042     0.35200
H1990       H  0.55263777  0.45398338  0.93340242     0.40300
H1991       H  0.66325192  0.58431077  0.94370047     0.39900
H1992       H  0.68487664  0.55214699  0.92298471     0.34800
C1993       C  0.59610886  0.52344791  0.69319172    -0.27000
C1994       C  0.62382925  0.52785680  0.71663297    -0.15000
C1995       C  0.65170472  0.50519770  0.71270058     0.35600
C1996       C  0.65089205  0.47852649  0.68575412    -0.26400
C1997       C  0.62309703  0.47460565  0.66251198    -0.15700
C1998       C  0.59539705  0.49707416  0.66642109     0.36700
N1999       N  0.56654841  0.49302587  0.64298997    -0.89900
H2000       H  0.57442056  0.53995066  0.69608291     0.17800
H2001       H  0.67235924  0.46193406  0.68212452     0.17800
N2002       N  0.68071673  0.50938347  0.73579452    -0.88900
H2003       H  0.54826432  0.51151260  0.64937248     0.35200
H2004       H  0.55870295  0.46373948  0.64450545     0.40300
H2005       H  0.68890749  0.53833655  0.73339736     0.39900
H2006       H  0.69869483  0.49023342  0.72955978     0.34800
C2007       C  0.73791790  0.62389445  0.85973391    -0.27000
C2008       C  0.72234439  0.58722225  0.85394337    -0.15000
C2009       C  0.73994550  0.55199077  0.86349472     0.35600
C2010       C  0.77198834  0.55417390  0.87902917    -0.26400
C2011       C  0.78737773  0.59091718  0.88531382    -0.15700
C2012       C  0.76992094  0.62611393  0.87508947     0.36700
N2013       N  0.78446392  0.66439634  0.87990522    -0.89900
H2014       H  0.72510831  0.65144177  0.85267643     0.17800
H2015       H  0.78491523  0.52669073  0.88600750     0.17800
N2016       N  0.72554393  0.51378668  0.85759460    -0.88900
H2017       H  0.77087922  0.68165081  0.89433485     0.35200
H2018       H  0.78342694  0.67806581  0.85664747     0.40300
H2019       H  0.72655749  0.49921751  0.88046446     0.39900
H2020       H  0.73927147  0.49730262  0.84277949     0.34800
C2021       C  0.00493028  0.66397298  0.83762488    -0.27000
C2022       C  0.53255002  0.65591840  0.85833589    -0.15000
C2023       C  0.53299398  0.65552433  0.89330318     0.35600
C2024       C  0.50406559  0.65501328  0.90679078    -0.26400
C2025       C  0.97701125  0.65939167  0.88636865    -0.15700
C2026       C  0.97611370  0.66440331  0.85156495     0.36700
N2027       N  0.94589037  0.66867894  0.83029999    -0.89900
H2028       H  0.00380897  0.66526367  0.81082848     0.17800
H2029       H  0.50510831  0.65239395  0.93352409     0.17800
N2030       N  0.56275014  0.65431678  0.91539730    -0.88900
H2031       H  0.94936218  0.67160400  0.80542578     0.35200
H2032       H  0.93524992  0.69528499  0.83678745     0.40300
H2033       H  0.56327407  0.62856614  0.92989554     0.39900
H2034       H  0.56330580  0.67890479  0.93126993     0.34800
C2035       C  0.53504972  0.48984969  0.74593922    -0.27000
C2036       C  0.52889410  0.51446141  0.77228697    -0.15000
C2037       C  0.49667618  0.52380937  0.77595801     0.35600
C2038       C  0.97255903  0.50719336  0.75349480    -0.26400
C2039       C  0.97914808  0.48457279  0.72604445    -0.15700
C2040       C  0.01135391  0.47562281  0.72241286     0.36700
N2041       N  0.01996297  0.45237232  0.69533514    -0.89900
H2042       H  0.55953775  0.48303171  0.74229787     0.17800
H2043       H  0.94798470  0.51269874  0.75754703     0.17800
N2044       N  0.48837950  0.54748394  0.80295217    -0.88900
H2045       H  0.00839930  0.46438389  0.67299185     0.35200
H2046       H  0.01264199  0.42306391  0.69767967     0.40300
H2047       H  0.49603118  0.57661890  0.80051943     0.39900
H2048       H  0.49982411  0.53544230  0.82534179     0.34800
loop_ 
_geom_bond_atom_site_label_1 
_geom_bond_atom_site_label_2 
_geom_bond_distance 
_geom_bond_site_symmetry_2 
_ccdc_geom_bond_type 
O1          Cr19   1.971       .  S
O1            C9   1.255       .  A
O2          Cr19   2.045       .  S
O2            C3   1.275       .  A
C3            O4   1.254       .  A
C3          C444   1.475       .  S
O4          Cr20   1.933       .  S
O5          Cr20   2.026       .  S
O5            C6   1.268       .  A
C6            O7   1.248       .  A
C6          C500   1.466       .  S
O7          Cr21   1.953       .  S
O8          Cr21   2.022       .  S
O8            C9   1.268       .  A
C9          C486   1.496       .  S
O10         Cr19   2.054       .  S
O10          C18   1.280       .  A
O11         Cr19   1.972       .  S
O11          C12   1.261       .  A
C12          O13   1.269       .  A
C12         C472   1.492       .  S
O13         Cr20   2.025       .  S
O14         Cr20   1.962       .  S
O14          C15   1.259       .  A
C15          O16   1.274       .  A
C15         C458   1.486       .  S
O16         Cr21   2.024       .  S
O17         Cr21   1.937       .  S
O17          C18   1.251       .  A
C18         C430   1.489       .  S
Cr19         O22   1.761       .  S
Cr20         O22   1.763       .  S
Cr21         O22   1.755       .  S
O23         Cr41   1.967       .  S
O23          C31   1.255       .  A
O24         Cr41   2.035       .  S
O24          C25   1.272       .  A
C25          O26   1.255       .  A
C25         C391   1.473       .  S
O26         Cr42   1.936       .  S
O27         Cr42   2.023       .  S
O27          C28   1.267       .  A
C28          O29   1.251       .  A
C28         C416   1.468       .  S
O29         Cr43   1.954       .  S
O30         Cr43   2.026       .  S
O30          C31   1.269       .  A
C31         C489   1.495       .  S
O32         Cr41   2.043       .  S
O32          C40   1.276       .  A
O33         Cr41   1.970       .  S
O33          C34   1.260       .  A
C34          O35   1.270       .  A
C34         C475   1.495       .  S
O35         Cr42   2.027       .  S
O36         Cr42   1.965       .  S
O36         C549   1.260       .  A
C37          O38   1.274       .  A
C37         O548   1.258       .  A
C37         C402   1.489   1_556  S
O38        Cr555   2.027       .  S
O39         Cr43   1.938       .  S
O39          C40   1.252       .  A
C40         C374   1.483       .  S
Cr41         O44   1.764       .  S
Cr42         O44   1.762       .  S
Cr43        O550   2.025       .  S
Cr43         O44   1.757       .  S
O45         Cr63   2.055       .  S
O45          C53   1.280       .  A
O46         Cr63   1.964       .  S
O46          C47   1.259       .  A
C47          O48   1.268       .  A
C47         C349   1.482       .  S
O48         Cr64   2.018       .  S
O49         Cr64   1.966       .  S
O49          C50   1.259       .  A
C50          O51   1.267       .  A
C50         C388   1.481       .  S
O51         Cr65   2.006       .  S
O52         Cr65   1.939       .  S
O52          C53   1.253       .  A
C53         C335   1.488       .  S
O54         Cr63   1.970       .  S
O54          C62   1.255       .  A
O55         Cr63   2.049       .  S
O55          C56   1.276       .  A
C56          O57   1.252       .  A
C56         C405   1.479       .  S
O57         Cr64   1.935       .  S
O58         Cr64   2.021       .  S
O58          C59   1.268       .  A
C59          O60   1.251       .  A
C59         C503   1.464       .  S
O60         Cr65   1.949       .  S
O61         Cr65   2.015       .  S
O61          C62   1.266       .  A
C62         C363   1.489       .  S
Cr63         O66   1.760       .  S
Cr64         O66   1.764       .  S
Cr65         O66   1.754       .  S
O67         Cr85   2.055       .  S
O67          C75   1.280       .  A
O68         Cr85   1.963       .  S
O68          C69   1.258       .  A
C69          O70   1.268       .  A
C69         C346   1.484       .  S
O70         Cr86   2.017       .  S
O71         Cr86   1.966       .  S
O71         C584   1.261   1_554  A
C72          O73   1.269       .  A
C72         O583   1.262       .  A
C72         C447   1.483       .  S
O73        Cr599   2.009       .  S
O74         Cr87   1.937       .  S
O74          C75   1.251       .  A
C75         C318   1.487       .  S
O76         Cr85   1.963       .  S
O76          C84   1.252       .  A
O77         Cr85   2.047       .  S
O77          C78   1.275       .  A
C78          O79   1.253       .  A
C78         C461   1.472       .  S
O79         Cr86   1.932       .  S
O80         Cr86   2.019       .  S
O80          C81   1.267       .  A
C81          O82   1.250       .  A
C81         C419   1.468       .  S
O82         Cr87   1.949       .  S
O83         Cr87   2.017       .  S
O83          C84   1.267       .  A
C84         C360   1.494       .  S
Cr85         O88   1.760       .  S
Cr86         O88   1.763       .  S
Cr87        O585   2.010   1_554  S
Cr87         O88   1.754       .  S
O89        Cr107   2.050       .  S
O89          C97   1.278       .  A
O90        Cr107   1.963       .  S
O90          C91   1.259       .  A
C91          O92   1.269       .  A
C91         C304   1.481       .  S
O92        Cr108   2.018       .  S
O93        Cr108   1.962       .  S
O93         C606   1.256   1_554  A
C94          O95   1.273       .  A
C94         O605   1.256       .  A
C94         C262   1.485       .  S
O95        Cr621   2.028       .  S
O96        Cr109   1.936       .  S
O96          C97   1.252       .  A
C97         C377   1.490       .  S
O98        Cr107   1.965       .  S
O98         C106   1.255       .  A
O99        Cr107   2.043       .  S
O99         C100   1.274       .  A
C100        O101   1.256       .  A
C100        C276   1.476       .  S
O101       Cr108   1.941       .  S
O102       Cr108   2.030       .  S
O102        C103   1.268       .  A
C103        O104   1.248       .  A
C103        C251   1.471       .  S
O104       Cr109   1.942       .  S
O105       Cr109   2.031       .  S
O105        C106   1.271       .  A
C106        C293   1.498       .  S
Cr107       O110   1.759       .  S
Cr108       O110   1.763       .  S
Cr109       O607   2.030   1_554  S
Cr109       O110   1.752       .  S
O111       Cr129   2.054       .  S
O111        C119   1.280       .  A
O112       Cr129   1.968       .  S
O112        C113   1.259       .  A
C113        O114   1.270       .  A
C113        C307   1.496       .  S
O114       Cr130   2.023       .  S
O115       Cr130   1.969       .  S
O115        C116   1.260       .  A
C116        O117   1.272       .  A
C116        C220   1.489       .  S
O117       Cr131   2.021       .  S
O118       Cr131   1.937       .  S
O118        C119   1.253       .  A
C119        C433   1.489       .  S
O120       Cr129   1.974       .  S
O120        C128   1.256       .  A
O121       Cr129   2.044       .  S
O121        C122   1.275       .  A
C122        O123   1.253       .  A
C122        C234   1.476       .  S
O123       Cr130   1.935       .  S
O124       Cr130   2.025       .  S
O124        C125   1.269       .  A
C125        O126   1.252       .  A
C125        C206   1.470       .  S
O126       Cr131   1.952       .  S
O127       Cr131   2.021       .  S
O127        C128   1.267       .  A
C128        C290   1.494       .  S
Cr129       O132   1.766       .  S
Cr130       O132   1.766       .  S
Cr131       O132   1.757       .  S
O133       Cr151   1.974       .  S
O133        C141   1.257       .  A
O134       Cr151   2.048       .  S
O134        C135   1.276       .  A
C135        O136   1.254       .  A
C135        C223   1.480       .  S
O136       Cr152   1.939       .  S
O137       Cr152   2.022       .  S
O137        C138   1.267       .  A
C138        O139   1.251       .  A
C138        C248   1.464       .  S
O139       Cr153   1.949       .  S
O140       Cr153   2.018       .  S
O140        C141   1.267       .  A
C141        C181   1.495       .  S
O142       Cr151   2.060       .  S
O142        C150   1.280       .  A
O143       Cr151   1.971       .  S
O143        C144   1.261       .  A
C144        O145   1.268       .  A
C144        C192   1.485       .  S
O145       Cr152   2.015       .  S
O146       Cr152   1.965       .  S
O146        C659   1.259       .  A
C147        O148   1.273       .  A
C147        O658   1.259       .  A
C147        C237   1.486   1_556  S
O148       Cr665   2.024       .  S
O149       Cr153   1.935       .  S
O149        C150   1.251       .  A
C150        C321   1.494       .  S
Cr151       O154   1.763       .  S
Cr152       O154   1.765       .  S
Cr153       O660   2.017       .  S
Cr153       O154   1.753       .  S
O155       Cr173   1.971       .  S
O155        C163   1.256       .  A
O156       Cr173   2.039       .  S
O156        C157   1.275       .  A
C157        O158   1.253       .  A
C157        C265   1.479       .  S
O158       Cr174   1.941       .  S
O159       Cr174   2.031       .  S
O159        C160   1.270       .  A
C160        O161   1.251       .  A
C160        C209   1.472       .  S
O161       Cr175   1.947       .  S
O162       Cr175   2.020       .  S
O162        C163   1.266       .  A
C163        C178   1.496       .  S
O164       Cr173   2.054       .  S
O164        C172   1.279       .  A
O165       Cr173   1.964       .  S
O165        C166   1.259       .  A
C166        O167   1.271       .  A
C166        C195   1.491       .  S
O167       Cr174   2.030       .  S
O168       Cr174   1.972       .  S
O168        C169   1.261       .  A
C169        O170   1.269       .  A
C169        C279   1.488       .  S
O170       Cr175   2.012       .  S
O171       Cr175   1.935       .  S
O171        C172   1.252       .  A
C172        C332   1.488       .  S
Cr173       O176   1.762       .  S
Cr174       O176   1.766       .  S
Cr175       O176   1.753       .  S
C177        C178   1.409       .  A
C177        C182   1.405       .  A
C177        H184   1.084       .  S
C178        C179   1.415       .  A
C179        C180   1.411       .  A
C179        N186   1.437       .  S
C180        C181   1.409       .  A
C180        H185   1.083       .  S
C181        C182   1.411       .  A
C182        N183   1.432       .  S
N183        H187   1.045       .  S
N183        H188   1.045       .  S
N186        H189   1.046       .  S
N186        H190   1.045       .  S
C191        C192   1.408       .  A
C191       C1220   1.409   1_455  A
C191        H198   1.084       .  S
C192        C193   1.409       .  A
C193       C1218   1.400   1_455  A
C193        N200   1.433       .  S
C194        C195   1.409       .  A
C194       C1217   1.403       .  A
C194        H199   1.084       .  S
C195        C196   1.413       .  A
C196       C1215   1.408       .  A
C196        N197   1.438       .  S
N197        H202   1.045       .  S
N197       H1225   1.046   1_545  S
N200        H203   1.046       .  S
N200        H204   1.045       .  S
H201       N1221   1.046   1_565  S
C205        C206   1.402   1_545  A
C205        C210   1.398       .  A
C205        H212   1.084       .  S
C206        C207   1.410       .  A
C207        C208   1.399       .  A
C207        N214   1.433       .  S
C208        C209   1.403   1_565  A
C208        H213   1.084       .  S
C209        C210   1.413       .  A
C210        N211   1.433       .  S
N211        H215   1.044       .  S
N211        H216   1.045       .  S
N214        H217   1.045       .  S
N214        H218   1.046       .  S
C219        C220   1.404       .  A
C219        C224   1.396       .  A
C219        H226   1.084       .  S
C220        C221   1.418       .  A
C221        C222   1.409   1_565  A
C221        N228   1.432   1_565  S
C222        C223   1.403       .  A
C222        H227   1.084       .  S
C223        C224   1.412   1_545  A
C224        N225   1.434       .  S
N225        H229   1.045       .  S
N225        H230   1.045       .  S
N228        H231   1.046       .  S
N228        H232   1.046   1_545  S
C233        C234   1.401       .  A
C233        C238   1.407   1_565  A
C233        H240   1.084       .  S
C234        C235   1.413   1_565  A
C235        C236   1.396       .  A
C235        N242   1.435       .  S
C236        C237   1.403       .  A
C236        H241   1.084       .  S
C237        C238   1.418       .  A
C238        N239   1.432   1_544  S
N239        H243   1.045   1_566  S
N239        H244   1.046       .  S
N242        H245   1.046       .  S
N242        H246   1.044       .  S
C247        C252   1.395   1_556  A
C247        C760   1.401   1_565  A
C247        H254   1.084       .  S
C248        C249   1.410       .  A
C248        C759   1.403   1_545  A
C249        C250   1.399       .  A
C249        N256   1.438       .  S
C250        C763   1.403   1_545  A
C250        H255   1.084       .  S
C251        C252   1.412       .  A
C251        C762   1.403   1_564  A
C252        N253   1.434       .  S
N253        H257   1.046       .  S
N253        H258   1.043       .  S
N256        H259   1.045       .  S
N256        H260   1.046       .  S
C261        C262   1.403       .  A
C261        C266   1.398       .  A
C261        H268   1.084       .  S
C262        C263   1.424   1_565  A
C263        C264   1.399       .  A
C263        N270   1.433       .  S
C264        C265   1.400       .  A
C264        H269   1.084       .  S
C265        C266   1.414   1_545  A
C266        N267   1.434       .  S
N267        H271   1.046       .  S
N267        H272   1.045       .  S
N270        H274   1.045       .  S
N270        H785   1.045   1_545  S
H273        N782   1.046   1_565  S
C275        C276   1.401   1_545  A
C275        C280   1.398       .  A
C275        H282   1.084       .  S
C276        C277   1.413       .  A
C277        C278   1.404   1_565  A
C277        N284   1.433       .  S
C278        C279   1.410       .  A
C278        H283   1.084       .  S
C279        C280   1.418       .  A
C280        N281   1.439       .  S
N281        H285   1.046       .  S
N281        H286   1.046       .  S
N284        H287   1.045       .  S
N284        H288   1.046       .  S
C289        C290   1.403       .  A
C289        C294   1.405       .  A
C289        H296   1.084       .  S
C290        C291   1.417       .  A
C291        C292   1.412       .  A
C291        N298   1.437       .  S
C292        C293   1.406       .  A
C292        H297   1.083       .  S
C293        C294   1.418       .  A
C294        N295   1.433       .  S
N295        H299   1.046       .  S
N295        H300   1.045       .  S
N298        H301   1.046       .  S
N298        H302   1.046       .  S
C303        C304   1.406       .  A
C303       C1332   1.402       .  A
C303        H310   1.084       .  S
C304        C305   1.411       .  A
C305       C1330   1.405       .  A
C305        N312   1.438       .  S
C306        C307   1.408       .  A
C306       C1329   1.409   1_455  A
C306        H311   1.083       .  S
C307        C308   1.418       .  A
C308       C1327   1.406   1_455  A
C308        N309   1.439       .  S
N309        H313   1.046       .  S
N309        H314   1.046       .  S
N312        H315   1.046       .  S
N312       H1340   1.045   1_565  S
H316       N1336   1.045   1_545  S
C317        C318   1.397       .  A
C317        C322   1.403       .  A
C317        H324   1.084       .  S
C318        C831   1.421   1_554  A
C319        C320   1.407       .  A
C319        C830   1.422       .  A
C319        N326   1.433       .  S
C320        C321   1.400       .  A
C320        H325   1.084       .  S
C321        C834   1.423       .  A
C322        C833   1.421   1_554  A
C322        N323   1.433       .  S
N323        H327   1.046       .  S
N323        H328   1.046       .  S
N326        H329   1.046       .  S
N326        H330   1.046       .  S
C331        C332   1.412       .  A
C331        C336   1.405       .  A
C331        H338   1.084       .  S
C332        C333   1.408       .  A
C333        C334   1.408       .  A
C333        N340   1.438       .  S
C334        C335   1.414       .  A
C334        H339   1.084       .  S
C335        C336   1.407       .  A
C336        N337   1.438       .  S
N337        H341   1.046       .  S
N337        H342   1.046       .  S
N340        H343   1.046       .  S
N340        H344   1.046       .  S
C345        C346   1.408       .  A
C345        C350   1.404       .  A
C345        H352   1.084       .  S
C346        C347   1.411       .  A
C347        C348   1.400       .  A
C347        N354   1.433       .  S
C348        C349   1.405       .  A
C348        H353   1.084       .  S
C349        C350   1.409       .  A
C350        N351   1.432       .  S
N351        H355   1.046       .  S
N351        H356   1.046       .  S
N354        H357   1.046       .  S
N354        H358   1.046       .  S
C359        C360   1.406       .  A
C359       C1388   1.406   1_455  A
C359        H366   1.084       .  S
C360        C361   1.424       .  A
C361        C362   1.400       .  A
C361        N368   1.433       .  S
C362       C1387   1.403   1_455  A
C362        H367   1.084       .  S
C363        C364   1.412       .  A
C363       C1386   1.402       .  A
C364       C1383   1.405       .  A
C364        N365   1.432       .  S
N365        H369   1.046       .  S
N365        H370   1.045       .  S
N368        H371   1.045       .  S
N368        H372   1.046       .  S
C373        C378   1.406       .  A
C373        C886   1.414   1_554  A
C373        H380   1.083       .  S
C374        C375   1.407       .  A
C374        C885   1.412       .  A
C375        C376   1.404       .  A
C375        N382   1.438       .  S
C376        C889   1.412       .  A
C376        H381   1.084       .  S
C377        C378   1.408       .  A
C377        C888   1.413   1_554  A
C378        N379   1.438       .  S
N379        H383   1.045       .  S
N379        H384   1.046       .  S
N382        H385   1.046       .  S
N382        H386   1.046       .  S
C387        C388   1.410       .  A
C387        C392   1.408       .  A
C387        H394   1.083       .  S
C388        C389   1.415       .  A
C389        C390   1.394       .  A
C389        N396   1.439       .  S
C390        C391   1.403       .  A
C390        H395   1.084       .  S
C391        C392   1.409       .  A
C392        N393   1.438       .  S
N393        H397   1.045       .  S
N393        H398   1.046       .  S
N396        H399   1.045       .  S
N396        H400   1.046       .  S
C401        C402   1.403       .  A
C401        C406   1.396       .  A
C401        H408   1.084       .  S
C402        C403   1.421       .  A
C403        C404   1.412       .  A
C403        N922   1.438       .  S
C404        C405   1.401       .  A
C404        H409   1.084       .  S
C405        C406   1.413       .  A
C406        N407   1.434       .  S
N407        H411   1.046       .  S
N407        H412   1.043       .  S
N410        C915   1.437       .  S
N410        H413   1.045       .  S
N410        H414   1.046       .  S
C415        C928   1.403   1_554  A
C415       C1444   1.400       .  A
C415        H422   1.084       .  S
C416        C417   1.408       .  A
C416        C927   1.405       .  A
C417       C1442   1.397       .  A
C417        N424   1.433       .  S
C418       C1441   1.396       .  A
C418        C931   1.404       .  A
C418        H423   1.084       .  S
C419        C420   1.414   1_455  A
C419        C930   1.402   1_554  A
C420       C1439   1.400   1_554  A
C420        N421   1.439       .  S
N421        H426   1.044       .  S
N421       H1449   1.046       .  S
N424        H427   1.046       .  S
N424       H1452   1.046       .  S
H425       N1445   1.045       .  S
H428       N1448   1.046       .  S
C429        C430   1.398       .  A
C429        C434   1.406       .  A
C429        H436   1.084       .  S
C430        C431   1.424       .  A
C431        C432   1.408       .  A
C431        N438   1.439       .  S
C432        C433   1.399       .  A
C432        H437   1.084       .  S
C433        C434   1.422       .  A
C434        N435   1.439       .  S
N435        H439   1.046       .  S
N435        H440   1.046       .  S
N438        H441   1.045       .  S
N438        H442   1.046       .  S
C443        C444   1.403       .  A
C443        C448   1.393       .  A
C443        H450   1.085       .  S
C444        C445   1.412       .  A
C445        C446   1.403       .  A
C445        N452   1.432       .  S
C446        C447   1.410       .  A
C446        H451   1.083       .  S
C447        C448   1.413       .  A
C448        N449   1.434       .  S
N449        H453   1.046       .  S
N449        H454   1.045       .  S
N452        H455   1.045       .  S
N452        H456   1.046       .  S
C457        C458   1.403       .  A
C457        C462   1.396       .  A
C457        H464   1.083       .  S
C458        C459   1.420       .  A
C459        C460   1.410       .  A
C459        N466   1.438       .  S
C460        C461   1.401       .  A
C460        H465   1.084       .  S
C461        C462   1.411       .  A
C462        N463   1.440       .  S
N463        H467   1.046       .  S
N463        H468   1.045       .  S
N466        H469   1.046       .  S
N466        H470   1.046       .  S
C471        C472   1.405       .  A
C471        C476   1.403       .  A
C471        H478   1.084       .  S
C472        C473   1.413       .  A
C473        C474   1.409       .  A
C473        N480   1.432       .  S
C474        C475   1.409       .  A
C474        H479   1.084       .  S
C475        C476   1.414       .  A
C476        N477   1.433       .  S
N477        H481   1.046       .  S
N477        H482   1.046       .  S
N480        H483   1.046       .  S
N480        H484   1.046       .  S
C485        C490   1.410       .  A
C485       C1510   1.404       .  A
C485        H492   1.083       .  S
C486        C487   1.416       .  A
C486       C1509   1.404       .  A
C487        C488   1.407       .  A
C487        N494   1.432       .  S
C488       C1513   1.404   1_455  A
C488        H493   1.084       .  S
C489        C490   1.419       .  A
C489       C1512   1.403       .  A
C490        N491   1.438       .  S
N491        H495   1.046       .  S
N491        H496   1.045       .  S
N494        H497   1.046       .  S
N494        H498   1.046       .  S
C499        C500   1.402       .  A
C499       C1528   1.392       .  A
C499        H506   1.083       .  S
C500        C501   1.414   1_455  A
C501       C1526   1.395       .  A
C501        N508   1.434       .  S
C502        C503   1.403       .  A
C502       C1525   1.392       .  A
C502        H507   1.084       .  S
C503        C504   1.413       .  A
C504       C1523   1.393       .  A
C504        N505   1.433       .  S
N505        H509   1.046       .  S
N505        H510   1.043       .  S
N508        H511   1.044       .  S
N508        H512   1.046   1_655  S
O513       Cr531   1.965       .  S
O513        C521   1.255       .  A
O514       Cr531   2.041       .  S
O514        C515   1.273       .  A
C515        O516   1.253       .  A
C515        C956   1.470       .  S
O516       Cr532   1.932       .  S
O517       Cr532   2.007       .  S
O517        C518   1.264       .  A
C518        O519   1.251       .  A
C518       C1012   1.464       .  S
O519       Cr533   1.958       .  S
O520       Cr533   2.027       .  S
O520        C521   1.270       .  A
C521        C998   1.498       .  S
O522       Cr531   2.047       .  S
O522        C530   1.278       .  A
O523       Cr531   1.966       .  S
O523        C524   1.260       .  A
C524        O525   1.267       .  A
C524        C984   1.487       .  S
O525       Cr532   2.017       .  S
O526       Cr532   1.964       .  S
O526        C527   1.261       .  A
C527        O528   1.274       .  A
C527        C970   1.489       .  S
O528       Cr533   2.023       .  S
O529       Cr533   1.949       .  S
O529        C530   1.253       .  A
C530        C942   1.490       .  S
Cr531       O534   1.763       .  S
Cr532       O534   1.764       .  S
Cr533       O534   1.757       .  S
O535       Cr553   1.971       .  S
O535        C543   1.257       .  A
O536       Cr553   2.040       .  S
O536        C537   1.273       .  A
C537        O538   1.255       .  A
C537        C903   1.478       .  S
O538       Cr554   1.940       .  S
O539       Cr554   2.024       .  S
O539        C540   1.268       .  A
C540        O541   1.249       .  A
C540        C928   1.467       .  S
O541       Cr555   1.948       .  S
O542       Cr555   2.024       .  S
O542        C543   1.269       .  A
C543       C1001   1.494       .  S
O544       Cr553   2.047       .  S
O544        C552   1.277       .  A
O545       Cr553   1.966       .  S
O545        C546   1.259       .  A
C546        O547   1.270       .  A
C546        C987   1.489       .  S
O547       Cr554   2.021       .  S
O548       Cr554   1.963       .  S
C549        O550   1.274       .  A
C549        C914   1.489       .  S
O551       Cr555   1.940       .  S
O551        C552   1.253       .  A
C552        C886   1.491       .  S
Cr553       O556   1.761       .  S
Cr554       O556   1.763       .  S
Cr555       O556   1.753       .  S
O557       Cr575   2.061       .  S
O557        C565   1.280       .  A
O558       Cr575   1.966       .  S
O558        C559   1.260       .  A
C559        O560   1.270       .  A
C559        C861   1.492       .  S
O560       Cr576   2.027       .  S
O561       Cr576   1.968       .  S
O561        C562   1.260       .  A
C562        O563   1.269       .  A
C562        C900   1.483       .  S
O563       Cr577   2.013       .  S
O564       Cr577   1.934       .  S
O564        C565   1.251       .  A
C565        C847   1.488       .  S
O566       Cr575   1.970       .  S
O566        C574   1.255       .  A
O567       Cr575   2.047       .  S
O567        C568   1.277       .  A
C568        O569   1.254       .  A
C568        C917   1.480       .  S
O569       Cr576   1.941       .  S
O570       Cr576   2.031       .  S
O570        C571   1.269       .  A
C571        O572   1.250       .  A
C571       C1015   1.474       .  S
O572       Cr577   1.948       .  S
O573       Cr577   2.018       .  S
O573        C574   1.267       .  A
C574        C875   1.492       .  S
Cr575       O578   1.762       .  S
Cr576       O578   1.766       .  S
Cr577       O578   1.753       .  S
O579       Cr597   2.054       .  S
O579        C587   1.280       .  A
O580       Cr597   1.972       .  S
O580        C581   1.260       .  A
C581        O582   1.268       .  A
C581        C858   1.492       .  S
O582       Cr598   2.015       .  S
O583       Cr598   1.971       .  S
C584        O585   1.269       .  A
C584        C959   1.481       .  S
O586       Cr599   1.939       .  S
O586        C587   1.251       .  A
C587        C830   1.491       .  S
O588       Cr597   1.969       .  S
O588        C596   1.253       .  A
O589       Cr597   2.041       .  S
O589        C590   1.275       .  A
C590        O591   1.255       .  A
C590        C973   1.474       .  S
O591       Cr598   1.941       .  S
O592       Cr598   2.016       .  S
O592        C593   1.265       .  A
C593        O594   1.251       .  A
C593        C931   1.464       .  S
O594       Cr599   1.952       .  S
O595       Cr599   2.016       .  S
O595        C596   1.266       .  A
C596        C872   1.494       .  S
Cr597       O600   1.762       .  S
Cr598       O600   1.768       .  S
Cr599       O600   1.755       .  S
O601       Cr619   2.052       .  S
O601        C609   1.279       .  A
O602       Cr619   1.965       .  S
O602        C603   1.259       .  A
C603        O604   1.269       .  A
C603        C816   1.488       .  S
O604       Cr620   2.022       .  S
O605       Cr620   1.959       .  S
C606        O607   1.275       .  A
C606        C774   1.490       .  S
O608       Cr621   1.932       .  S
O608        C609   1.252       .  A
C609        C889   1.484       .  S
O610       Cr619   1.966       .  S
O610        C618   1.256       .  A
O611       Cr619   2.048       .  S
O611        C612   1.276       .  A
C612        O613   1.253       .  A
C612        C788   1.489       .  S
O613       Cr620   1.934       .  S
O614       Cr620   2.025       .  S
O614        C615   1.269       .  A
C615        O616   1.249       .  A
C615        C763   1.465       .  S
O616       Cr621   1.946       .  S
O617       Cr621   2.024       .  S
O617        C618   1.268       .  A
C618        C805   1.493       .  S
Cr619       O622   1.757       .  S
Cr620       O622   1.758       .  S
Cr621       O622   1.753       .  S
O623       Cr641   2.062       .  S
O623        C631   1.281       .  A
O624       Cr641   1.969       .  S
O624        C625   1.260       .  A
C625        O626   1.269       .  A
C625        C819   1.494       .  S
O626       Cr642   2.022       .  S
O627       Cr642   1.959       .  S
O627        C628   1.257       .  A
C628        O629   1.273       .  A
C628        C732   1.482       .  S
O629       Cr643   2.024       .  S
O630       Cr643   1.935       .  S
O630        C631   1.253       .  A
C631        C945   1.493       .  S
O632       Cr641   1.970       .  S
O632        C640   1.256       .  A
O633       Cr641   2.051       .  S
O633        C634   1.277       .  A
C634        O635   1.251       .  A
C634        C746   1.480       .  S
O635       Cr642   1.929       .  S
O636       Cr642   2.024       .  S
O636        C637   1.268       .  A
C637        O638   1.251       .  A
C637        C718   1.467       .  S
O638       Cr643   1.950       .  S
O639       Cr643   2.020       .  S
O639        C640   1.267       .  A
C640        C802   1.491       .  S
Cr641       O644   1.762       .  S
Cr642       O644   1.763       .  S
Cr643       O644   1.756       .  S
O645       Cr663   1.969       .  S
O645        C653   1.255       .  A
O646       Cr663   2.052       .  S
O646        C647   1.277       .  A
C647        O648   1.250       .  A
C647        C735   1.479       .  S
O648       Cr664   1.923       .  S
O649       Cr664   2.026       .  S
O649        C650   1.269       .  A
C650        O651   1.250       .  A
C650        C760   1.469       .  S
O651       Cr665   1.946       .  S
O652       Cr665   2.020       .  S
O652        C653   1.266       .  A
C653        C693   1.494       .  S
O654       Cr663   2.061       .  S
O654        C662   1.282       .  A
O655       Cr663   1.969       .  S
O655        C656   1.259       .  A
C656        O657   1.270       .  A
C656        C704   1.490       .  S
O657       Cr664   2.024       .  S
O658       Cr664   1.963       .  S
C659        O660   1.272       .  A
C659        C749   1.483       .  S
O661       Cr665   1.931       .  S
O661        C662   1.252       .  A
C662        C833   1.489       .  S
Cr663       O666   1.761       .  S
Cr664       O666   1.763       .  S
Cr665       O666   1.752       .  S
O667       Cr685   1.965       .  S
O667        C675   1.256       .  A
O668       Cr685   2.050       .  S
O668        C669   1.276       .  A
C669        O670   1.252       .  A
C669        C777   1.478       .  S
O670       Cr686   1.936       .  S
O671       Cr686   2.017       .  S
O671        C672   1.267       .  A
C672        O673   1.251       .  A
C672        C721   1.465       .  S
O673       Cr687   1.952       .  S
O674       Cr687   2.021       .  S
O674        C675   1.268       .  A
C675        C690   1.493       .  S
O676       Cr685   2.054       .  S
O676        C684   1.279       .  A
O677       Cr685   1.964       .  S
O677        C678   1.259       .  A
C678        O679   1.268       .  A
C678        C707   1.478       .  S
O679       Cr686   2.014       .  S
O680       Cr686   1.958       .  S
O680        C681   1.258       .  A
C681        O682   1.271       .  A
C681        C791   1.474       .  S
O682       Cr687   2.020       .  S
O683       Cr687   1.943       .  S
O683        C684   1.253       .  A
C684        C844   1.489       .  S
Cr685       O688   1.763       .  S
Cr686       O688   1.762       .  S
Cr687       O688   1.755       .  S
C689        C690   1.409       .  A
C689        C694   1.404       .  A
C689        H696   1.084       .  S
C690        C691   1.414       .  A
C691        C692   1.410       .  A
C691        N698   1.438       .  S
C692        C693   1.410       .  A
C692        H697   1.083       .  S
C693        C694   1.410       .  A
C694        N695   1.432       .  S
N695        H699   1.045       .  S
N695        H700   1.045       .  S
N698        H701   1.045       .  S
N698        H702   1.046       .  S
C703        C704   1.408       .  A
C703       C1732   1.410   1_455  A
C703        H710   1.083       .  S
C704        C705   1.412       .  A
C705       C1730   1.403   1_455  A
C705        N712   1.433       .  S
C706       C1729   1.400       .  A
C706        C707   1.405       .  A
C706        H711   1.084       .  S
C707        C708   1.411       .  A
C708       C1727   1.406       .  A
C708        N709   1.438       .  S
N709       H1737   1.046       .  S
N709        H714   1.045       .  S
N712        H715   1.046       .  S
N712        H716   1.046       .  S
H713       N1733   1.045       .  S
C717        C718   1.403   1_545  A
C717        C722   1.397       .  A
C717        H724   1.084       .  S
C718        C719   1.410       .  A
C719        C720   1.397       .  A
C719        N726   1.433       .  S
C720        C721   1.402   1_565  A
C720        H725   1.084       .  S
C721        C722   1.409       .  A
C722        N723   1.433       .  S
N723        H727   1.044       .  S
N723        H728   1.046       .  S
N726        H729   1.045       .  S
N726        H730   1.046       .  S
C731        C732   1.400       .  A
C731        C736   1.394       .  A
C731        H738   1.084       .  S
C732        C733   1.419   1_565  A
C733        C734   1.407       .  A
C733        N740   1.432       .  S
C734        C735   1.400       .  A
C734        H739   1.084       .  S
C735        C736   1.418   1_545  A
C736        N737   1.435       .  S
N737        H741   1.045       .  S
N737        H742   1.046       .  S
N740        H743   1.046       .  S
N740        H744   1.045       .  S
C745        C746   1.402       .  A
C745        C750   1.407       .  A
C745        H752   1.084       .  S
C746        C747   1.417   1_565  A
C747        C748   1.394       .  A
C747        N754   1.435       .  S
C748        C749   1.401       .  A
C748        H753   1.084       .  S
C749        C750   1.417   1_545  A
C750        N751   1.432       .  S
N751        H755   1.046       .  S
N751        H756   1.046       .  S
N754        H757   1.046       .  S
N754        H758   1.045       .  S
C759        C764   1.397       .  A
C759        H766   1.084       .  S
C760        C761   1.414       .  A
C761        C762   1.401       .  A
C761        N768   1.439       .  S
C762        H767   1.084       .  S
C763        C764   1.410       .  A
C764        N765   1.434       .  S
N765        H769   1.046       .  S
N765        H770   1.044       .  S
N768        H771   1.045       .  S
N768        H772   1.046       .  S
C773        C774   1.404       .  A
C773        C778   1.395   1_565  A
C773        H780   1.084       .  S
C774        C775   1.426   1_565  A
C775        C776   1.405       .  A
C775        N782   1.433       .  S
C776        C777   1.401       .  A
C776        H781   1.084       .  S
C777        C778   1.411       .  A
C778        N779   1.434   1_545  S
N779        H783   1.043   1_565  S
N779        H784   1.046       .  S
N782        H786   1.044   1_556  S
C787        C788   1.414   1_545  A
C787        C792   1.398       .  A
C787        H794   1.083       .  S
C788        C789   1.415       .  A
C789        C790   1.401       .  A
C789        N796   1.432       .  S
C790        C791   1.408   1_565  A
C790        H795   1.084       .  S
C791        C792   1.404       .  A
C792        N793   1.439       .  S
N793        H797   1.046       .  S
N793        H798   1.045       .  S
N796        H799   1.044       .  S
N796        H800   1.047       .  S
C801        C802   1.403       .  A
C801        C806   1.404       .  A
C801        H808   1.084       .  S
C802        C803   1.417       .  A
C803        C804   1.410       .  A
C803        N810   1.438       .  S
C804        C805   1.405       .  A
C804        H809   1.083       .  S
C805        C806   1.416       .  A
C806        N807   1.433       .  S
N807        H811   1.045       .  S
N807        H812   1.046       .  S
N810        H813   1.045       .  S
N810        H814   1.046       .  S
C815        C816   1.406       .  A
C815       C1844   1.403       .  A
C815        H822   1.083       .  S
C816        C817   1.413       .  A
C817       C1842   1.408       .  A
C817        N824   1.438       .  S
C818       C1841   1.409   1_455  A
C818        C819   1.409       .  A
C818        H823   1.083       .  S
C819        C820   1.416       .  A
C820       C1839   1.405   1_455  A
C820        N821   1.438       .  S
N821        H825   1.046       .  S
N821        H826   1.046       .  S
N824        H827   1.046       .  S
N824       H1852   1.045   1_565  S
H828       N1848   1.045   1_545  S
C829        C830   1.398       .  A
C829        C834   1.403       .  A
C829        H836   1.084       .  S
C831        C832   1.406       .  A
C831        N838   1.433       .  S
C832        C833   1.400       .  A
C832        H837   1.084       .  S
C834        N835   1.433       .  S
N835        H839   1.046       .  S
N835        H840   1.046       .  S
N838        H841   1.046       .  S
N838        H842   1.046       .  S
C843        C844   1.413       .  A
C843        C848   1.410       .  A
C843        H850   1.084       .  S
C844        C845   1.408       .  A
C845        C846   1.407       .  A
C845        N852   1.438       .  S
C846        C847   1.412       .  A
C846        H851   1.084       .  S
C847        C848   1.408       .  A
C848        N849   1.438       .  S
N849        H853   1.046       .  S
N849        H854   1.046       .  S
N852        H855   1.046       .  S
N852        H856   1.045       .  S
C857        C858   1.408       .  A
C857        C862   1.406       .  A
C857        H864   1.084       .  S
C858        C859   1.413       .  A
C859        C860   1.402       .  A
C859        N866   1.433       .  S
C860        C861   1.407       .  A
C860        H865   1.083       .  S
C861        C862   1.413       .  A
C862        N863   1.432       .  S
N863        H867   1.046       .  S
N863        H868   1.046       .  S
N866        H869   1.046       .  S
N866        H870   1.046       .  S
C871        C872   1.405       .  A
C871       C1900   1.405   1_455  A
C871        H878   1.084       .  S
C872        C873   1.423       .  A
C873        C874   1.402       .  A
C873        N880   1.433       .  S
C874       C1899   1.403   1_455  A
C874        H879   1.084       .  S
C875       C1898   1.402       .  A
C875        C876   1.415       .  A
C876       C1895   1.407       .  A
C876        N877   1.433       .  S
N877        H881   1.046       .  S
N877        H882   1.046       .  S
N880        H883   1.044       .  S
N880        H884   1.045       .  S
C885        C890   1.406       .  A
C885        H892   1.084       .  S
C886        C887   1.409       .  A
C887        C888   1.406       .  A
C887        N894   1.438       .  S
C888        H893   1.083       .  S
C889        C890   1.407       .  A
C890        N891   1.438       .  S
N891        H895   1.046       .  S
N891        H896   1.046       .  S
N894        H897   1.045       .  S
N894        H898   1.046       .  S
C899        C900   1.410       .  A
C899        C904   1.410       .  A
C899        H906   1.083       .  S
C900        C901   1.411       .  A
C901        C902   1.393       .  A
C901        N908   1.434       .  S
C902        C903   1.404       .  A
C902        H907   1.084       .  S
C903        C904   1.411       .  A
C904        N905   1.437       .  S
N905        H909   1.045       .  S
N905        H910   1.045       .  S
N908        H911   1.046       .  S
N908        H912   1.046       .  S
C913        C914   1.404       .  A
C913        C918   1.397       .  A
C913        H920   1.084       .  S
C914        C915   1.420       .  A
C915        C916   1.410       .  A
C916        C917   1.402       .  A
C916        H921   1.084       .  S
C917        C918   1.413       .  A
C918        N919   1.434       .  S
N919        H923   1.046       .  S
N919        H924   1.045       .  S
N922        H925   1.046       .  S
N922        H926   1.046       .  S
C927       C1956   1.402       .  A
C927        H934   1.084       .  S
C928        C929   1.409       .  A
C929       C1954   1.397       .  A
C929        N936   1.434       .  S
C930       C1953   1.394       .  A
C930        H935   1.084       .  S
C931        C932   1.410   1_455  A
C932       C1951   1.399       .  A
C932        N933   1.438       .  S
N933       H1961   1.046       .  S
N933        H938   1.045   1_655  S
N936        H939   1.046       .  S
N936       H1964   1.046       .  S
H937       N1957   1.046       .  S
H940       N1960   1.046       .  S
C941        C942   1.398       .  A
C941        C946   1.405       .  A
C941        H948   1.084       .  S
C942        C943   1.421       .  A
C943        C944   1.411       .  A
C943        N950   1.438       .  S
C944        C945   1.402       .  A
C944        H949   1.084       .  S
C945        C946   1.423       .  A
C946        N947   1.439       .  S
N947        H951   1.046       .  S
N947        H952   1.046       .  S
N950        H953   1.046       .  S
N950        H954   1.046       .  S
C955        C956   1.402       .  A
C955        C960   1.392       .  A
C955        H962   1.085       .  S
C956        C957   1.411       .  A
C957        C958   1.401       .  A
C957        N964   1.432       .  S
C958        C959   1.410       .  A
C958        H963   1.083       .  S
C959        C960   1.413       .  A
C960        N961   1.434       .  S
N961        H965   1.046       .  S
N961        H966   1.045       .  S
N964        H967   1.045       .  S
N964        H968   1.045       .  S
C969        C970   1.406       .  A
C969        C974   1.399       .  A
C969        H976   1.083       .  S
C970        C971   1.420       .  A
C971        C972   1.409       .  A
C971        N978   1.438       .  S
C972        C973   1.400       .  A
C972        H977   1.084       .  S
C973        C974   1.412       .  A
C974        N975   1.440       .  S
N975        H979   1.046       .  S
N975        H980   1.045       .  S
N978        H981   1.046       .  S
N978        H982   1.046       .  S
C983        C984   1.404       .  A
C983        C988   1.399       .  A
C983        H990   1.084       .  S
C984        C985   1.414       .  A
C985        C986   1.405       .  A
C985        N992   1.433       .  S
C986        C987   1.407       .  A
C986        H991   1.084       .  S
C987        C988   1.414       .  A
C988        N989   1.433       .  S
N989        H993   1.046       .  S
N989        H994   1.046       .  S
N992        H995   1.046       .  S
N992        H996   1.046       .  S
C997       C2022   1.405       .  A
C997       C1002   1.411       .  A
C997       H1004   1.083       .  S
C998       C2021   1.404       .  A
C998        C999   1.419       .  A
C999       C1000   1.407       .  A
C999       N1006   1.433       .  S
C1000      C2025   1.403   1_455  A
C1000      H1005   1.084       .  S
C1001      C2024   1.403       .  A
C1001      C1002   1.418       .  A
C1002      N1003   1.438       .  S
N1003      H1007   1.046       .  S
N1003      H1008   1.045       .  S
N1006      H1009   1.046       .  S
N1006      H1010   1.046       .  S
C1011      C1012   1.404       .  A
C1011      C2040   1.390       .  A
C1011      H1018   1.084       .  S
C1012      C1013   1.412   1_455  A
C1013      C2038   1.394       .  A
C1013      N1020   1.434       .  S
C1014      C2037   1.396       .  A
C1014      C1015   1.405       .  A
C1014      H1019   1.084       .  S
C1015      C1016   1.417       .  A
C1016      C2035   1.393       .  A
C1016      N1017   1.433       .  S
N1017      H1021   1.046       .  S
N1017      H1022   1.044       .  S
N1020      H1023   1.044       .  S
N1020      H1024   1.046   1_655  S
O1025     Cr1043   1.965       .  S
O1025      C1033   1.255       .  A
O1026     Cr1043   2.052       .  S
O1026      C1027   1.277       .  A
C1027      O1028   1.254       .  A
C1027      C1468   1.487       .  S
O1028     Cr1044   1.936       .  S
O1029     Cr1044   2.025       .  S
O1029      C1030   1.267       .  A
C1030      O1031   1.248       .  A
C1030      C1524   1.466       .  S
O1031     Cr1045   1.949       .  S
O1032     Cr1045   2.026       .  S
O1032      C1033   1.269       .  A
C1033      C1510   1.496       .  S
O1034     Cr1043   2.060       .  S
O1034      C1042   1.281       .  A
O1035     Cr1043   1.969       .  S
O1035      C1036   1.260       .  A
C1036      O1037   1.268       .  A
C1036      C1496   1.491       .  S
O1037     Cr1044   2.022       .  S
O1038     Cr1044   1.961       .  S
O1038      C1039   1.258       .  A
C1039      O1040   1.273       .  A
C1039      C1482   1.482       .  S
O1040     Cr1045   2.020       .  S
O1041     Cr1045   1.939       .  S
O1041      C1042   1.251       .  A
C1042      C1454   1.489       .  S
Cr1043     O1046   1.758       .  S
Cr1044     O1046   1.764       .  S
Cr1045     O1046   1.754       .  S
O1047     Cr1065   1.966       .  S
O1047      C1055   1.254       .  A
O1048     Cr1065   2.041       .  S
O1048      C1049   1.274       .  A
C1049      O1050   1.253       .  A
C1049      C1415   1.477       .  S
O1050     Cr1066   1.934       .  S
O1051     Cr1066   2.021       .  S
O1051      C1052   1.267       .  A
C1052      O1053   1.249       .  A
C1052      C1440   1.464       .  S
O1053     Cr1067   1.947       .  S
O1054     Cr1067   2.029       .  S
O1054      C1055   1.269       .  A
C1055      C1513   1.497       .  S
O1056     Cr1065   2.051       .  S
O1056      C1064   1.279       .  A
O1057     Cr1065   1.967       .  S
O1057      C1058   1.259       .  A
C1058      O1059   1.270       .  A
C1058      C1499   1.492       .  S
O1059     Cr1066   2.023       .  S
O1060     Cr1066   1.965       .  S
O1060      C1573   1.260       .  A
C1061      O1572   1.261       .  A
C1061      O1062   1.274       .  A
C1061      C1426   1.494   1_556  S
O1062     Cr1579   2.031       .  S
O1063     Cr1067   1.932       .  S
O1063      C1064   1.252       .  A
C1064      C1398   1.486       .  S
Cr1065     O1068   1.762       .  S
Cr1066     O1068   1.762       .  S
Cr1067     O1574   2.032       .  S
Cr1067     O1068   1.754       .  S
O1069     Cr1087   2.064       .  S
O1069      C1077   1.282       .  A
O1070     Cr1087   1.974       .  S
O1070      C1071   1.260       .  A
C1071      O1072   1.266       .  A
C1071      C1373   1.487       .  S
O1072     Cr1088   2.011       .  S
O1073     Cr1088   1.966       .  S
O1073      C1074   1.261       .  A
C1074      O1075   1.269       .  A
C1074      C1412   1.480       .  S
O1075     Cr1089   2.010       .  S
O1076     Cr1089   1.941       .  S
O1076      C1077   1.253       .  A
C1077      C1359   1.498       .  S
O1078     Cr1087   1.972       .  S
O1078      C1086   1.255       .  A
O1079     Cr1087   2.055       .  S
O1079      C1080   1.278       .  A
C1080      O1081   1.255       .  A
C1080      C1429   1.483       .  S
O1081     Cr1088   1.942       .  S
O1082     Cr1088   2.021       .  S
O1082      C1083   1.266       .  A
C1083      O1084   1.251       .  A
C1083      C1527   1.466       .  S
O1084     Cr1089   1.952       .  S
O1085     Cr1089   2.013       .  S
O1085      C1086   1.265       .  A
C1086      C1387   1.492       .  S
Cr1087     O1090   1.763       .  S
Cr1088     O1090   1.767       .  S
Cr1089     O1090   1.757       .  S
O1091     Cr1109   2.055       .  S
O1091      C1099   1.280       .  A
O1092     Cr1109   1.967       .  S
O1092      C1093   1.259       .  A
C1093      O1094   1.268       .  A
C1093      C1370   1.483       .  S
O1094     Cr1110   2.016       .  S
O1095     Cr1110   1.962       .  S
O1095      C1608   1.260   1_554  A
C1096      O1607   1.261       .  A
C1096      O1097   1.271       .  A
C1096      C1471   1.485       .  S
O1097     Cr1623   2.018       .  S
O1098     Cr1111   1.931       .  S
O1098      C1099   1.251       .  A
C1099      C1342   1.485       .  S
O1100     Cr1109   1.963       .  S
O1100      C1108   1.252       .  A
O1101     Cr1109   2.042       .  S
O1101      C1102   1.275       .  A
C1102      O1103   1.253       .  A
C1102      C1485   1.466       .  S
O1103     Cr1110   1.928       .  S
O1104     Cr1110   2.025       .  S
O1104      C1105   1.267       .  A
C1105      O1106   1.249       .  A
C1105      C1443   1.468       .  S
O1106     Cr1111   1.949       .  S
O1107     Cr1111   2.021       .  S
O1107      C1108   1.268       .  A
C1108      C1384   1.497       .  S
Cr1109     O1112   1.763       .  S
Cr1110     O1112   1.764       .  S
Cr1111     O1609   2.023   1_554  S
Cr1111     O1112   1.753       .  S
O1113     Cr1131   2.047       .  S
O1113      C1121   1.278       .  A
O1114     Cr1131   1.968       .  S
O1114      C1115   1.260       .  A
C1115      O1116   1.270       .  A
C1115      C1328   1.494       .  S
O1116     Cr1132   2.027       .  S
O1117     Cr1132   1.958       .  S
O1117      C1630   1.256   1_554  A
C1118      O1629   1.258       .  A
C1118      O1119   1.275       .  A
C1118      C1286   1.494       .  S
O1119     Cr1645   2.036       .  S
O1120     Cr1133   1.935       .  S
O1120      C1121   1.252       .  A
C1121      C1401   1.485       .  S
O1122     Cr1131   1.962       .  S
O1122      C1130   1.254       .  A
O1123     Cr1131   2.043       .  S
O1123      C1124   1.275       .  A
C1124      O1125   1.255       .  A
C1124      C1300   1.478       .  S
O1125     Cr1132   1.935       .  S
O1126     Cr1132   2.034       .  S
O1126      C1127   1.269       .  A
C1127      O1128   1.247       .  A
C1127      C1275   1.472       .  S
O1128     Cr1133   1.946       .  S
O1129     Cr1133   2.029       .  S
O1129      C1130   1.271       .  A
C1130      C1317   1.497       .  S
Cr1131     O1134   1.759       .  S
Cr1132     O1134   1.758       .  S
Cr1133     O1631   2.036   1_554  S
Cr1133     O1134   1.754       .  S
O1135     Cr1153   2.055       .  S
O1135      C1143   1.278       .  A
O1136     Cr1153   1.965       .  S
O1136      C1137   1.259       .  A
C1137      O1138   1.269       .  A
C1137      C1331   1.483       .  S
O1138     Cr1154   2.016       .  S
O1139     Cr1154   1.967       .  S
O1139      C1140   1.259       .  A
C1140      O1141   1.272       .  A
C1140      C1244   1.487       .  S
O1141     Cr1155   2.019       .  S
O1142     Cr1155   1.946       .  S
O1142      C1143   1.253       .  A
C1143      C1457   1.490       .  S
O1144     Cr1153   1.967       .  S
O1144      C1152   1.255       .  A
O1145     Cr1153   2.045       .  S
O1145      C1146   1.275       .  A
C1146      O1147   1.254       .  A
C1146      C1258   1.482       .  S
O1147     Cr1154   1.940       .  S
O1148     Cr1154   2.022       .  S
O1148      C1149   1.267       .  A
C1149      O1150   1.252       .  A
C1149      C1230   1.470       .  S
O1150     Cr1155   1.950       .  S
O1151     Cr1155   2.024       .  S
O1151      C1152   1.269       .  A
C1152      C1314   1.492       .  S
Cr1153     O1156   1.765       .  S
Cr1154     O1156   1.766       .  S
Cr1155     O1156   1.755       .  S
O1157     Cr1175   1.977       .  S
O1157      C1165   1.257       .  A
O1158     Cr1175   2.048       .  S
O1158      C1159   1.276       .  A
C1159      O1160   1.253       .  A
C1159      C1247   1.478       .  S
O1160     Cr1176   1.934       .  S
O1161     Cr1176   2.022       .  S
O1161      C1162   1.266       .  A
C1162      O1163   1.250       .  A
C1162      C1272   1.465       .  S
O1163     Cr1177   1.949       .  S
O1164     Cr1177   2.016       .  S
O1164      C1165   1.265       .  A
C1165      C1205   1.496       .  S
O1166     Cr1175   2.057       .  S
O1166      C1174   1.281       .  A
O1167     Cr1175   1.977       .  S
O1167      C1168   1.262       .  A
C1168      O1169   1.268       .  A
C1168      C1216   1.490       .  S
O1169     Cr1176   2.013       .  S
O1170     Cr1176   1.965       .  S
O1170      C1683   1.259       .  A
C1171      O1682   1.260       .  A
C1171      O1172   1.273       .  A
C1171      C1261   1.485   1_556  S
O1172     Cr1689   2.020       .  S
O1173     Cr1177   1.936       .  S
O1173      C1174   1.252       .  A
C1174      C1345   1.490       .  S
Cr1175     O1178   1.763       .  S
Cr1176     O1178   1.764       .  S
Cr1177     O1684   2.016       .  S
Cr1177     O1178   1.754       .  S
O1179     Cr1197   1.969       .  S
O1179      C1187   1.256       .  A
O1180     Cr1197   2.050       .  S
O1180      C1181   1.277       .  A
C1181      O1182   1.254       .  A
C1181      C1289   1.486       .  S
O1182     Cr1198   1.944       .  S
O1183     Cr1198   2.022       .  S
O1183      C1184   1.269       .  A
C1184      O1185   1.252       .  A
C1184      C1233   1.471       .  S
O1185     Cr1199   1.953       .  S
O1186     Cr1199   2.019       .  S
O1186      C1187   1.267       .  A
C1187      C1202   1.496       .  S
O1188     Cr1197   2.062       .  S
O1188      C1196   1.280       .  A
O1189     Cr1197   1.964       .  S
O1189      C1190   1.259       .  A
C1190      O1191   1.269       .  A
C1190      C1219   1.485       .  S
O1191     Cr1198   2.023       .  S
O1192     Cr1198   1.968       .  S
O1192      C1193   1.260       .  A
C1193      O1194   1.269       .  A
C1193      C1303   1.486       .  S
O1194     Cr1199   2.014       .  S
O1195     Cr1199   1.945       .  S
O1195      C1196   1.254       .  A
C1196      C1356   1.498       .  S
Cr1197     O1200   1.762       .  S
Cr1198     O1200   1.766       .  S
Cr1199     O1200   1.757       .  S
C1201      C1202   1.409       .  A
C1201      C1206   1.406       .  A
C1201      H1208   1.084       .  S
C1202      C1203   1.415       .  A
C1203      C1204   1.410       .  A
C1203      N1210   1.437       .  S
C1204      C1205   1.409       .  A
C1204      H1209   1.083       .  S
C1205      C1206   1.412       .  A
C1206      N1207   1.433       .  S
N1207      H1211   1.046       .  S
N1207      H1212   1.045       .  S
N1210      H1213   1.045       .  S
N1210      H1214   1.046       .  S
C1215      C1216   1.409       .  A
C1215      H1222   1.083       .  S
C1216      C1217   1.410       .  A
C1217      N1224   1.433       .  S
C1218      C1219   1.406       .  A
C1218      H1223   1.084       .  S
C1219      C1220   1.413       .  A
C1220      N1221   1.438       .  S
N1221      H1226   1.045       .  S
N1224      H1227   1.046       .  S
N1224      H1228   1.046       .  S
C1229      C1230   1.403   1_545  A
C1229      C1234   1.399       .  A
C1229      H1236   1.084       .  S
C1230      C1231   1.410       .  A
C1231      C1232   1.397       .  A
C1231      N1238   1.433       .  S
C1232      C1233   1.403   1_565  A
C1232      H1237   1.084       .  S
C1233      C1234   1.411       .  A
C1234      N1235   1.433       .  S
N1235      H1239   1.044       .  S
N1235      H1240   1.045       .  S
N1238      H1241   1.045       .  S
N1238      H1242   1.046       .  S
C1243      C1244   1.403       .  A
C1243      C1248   1.394       .  A
C1243      H1250   1.084       .  S
C1244      C1245   1.418   1_565  A
C1245      C1246   1.410       .  A
C1245      N1252   1.432       .  S
C1246      C1247   1.403       .  A
C1246      H1251   1.084       .  S
C1247      C1248   1.413   1_545  A
C1248      N1249   1.435       .  S
N1249      H1253   1.045       .  S
N1249      H1254   1.046       .  S
N1252      H1255   1.046       .  S
N1252      H1256   1.046       .  S
C1257      C1258   1.404       .  A
C1257      C1262   1.409       .  A
C1257      H1264   1.084       .  S
C1258      C1259   1.414   1_565  A
C1259      C1260   1.395       .  A
C1259      N1266   1.434       .  S
C1260      C1261   1.402       .  A
C1260      H1265   1.084       .  S
C1261      C1262   1.417   1_545  A
C1262      N1263   1.432   1_554  S
N1263      H1267   1.046   1_556  S
N1263      H1268   1.046       .  S
N1266      H1269   1.046       .  S
N1266      H1270   1.045       .  S
C1271      C1784   1.402   1_565  A
C1271      C1276   1.398   1_556  A
C1271      H1278   1.084       .  S
C1272      C1783   1.402   1_545  A
C1272      C1273   1.411       .  A
C1273      C1274   1.399       .  A
C1273      N1280   1.438       .  S
C1274      C1787   1.403   1_545  A
C1274      H1279   1.084       .  S
C1275      C1786   1.404   1_564  A
C1275      C1276   1.413       .  A
C1276      N1277   1.434       .  S
N1277      H1281   1.046       .  S
N1277      H1282   1.045       .  S
N1280      H1283   1.046       .  S
N1280      H1284   1.046       .  S
C1285      C1286   1.404       .  A
C1285      C1290   1.400       .  A
C1285      H1292   1.084       .  S
C1286      C1287   1.426   1_565  A
C1287      C1288   1.404       .  A
C1287      N1294   1.432       .  S
C1288      C1289   1.401       .  A
C1288      H1293   1.084       .  S
C1289      C1290   1.414   1_545  A
C1290      N1291   1.434       .  S
N1291      H1295   1.045       .  S
N1291      H1296   1.046       .  S
N1294      H1809   1.045   1_545  S
N1294      H1298   1.045       .  S
H1297      N1806   1.045   1_565  S
C1299      C1300   1.405   1_545  A
C1299      C1304   1.397       .  A
C1299      H1306   1.084       .  S
C1300      C1301   1.412       .  A
C1301      C1302   1.402   1_565  A
C1301      N1308   1.432       .  S
C1302      C1303   1.411       .  A
C1302      H1307   1.083       .  S
C1303      C1304   1.415       .  A
C1304      N1305   1.439       .  S
N1305      H1309   1.046       .  S
N1305      H1310   1.045       .  S
N1308      H1311   1.044       .  S
N1308      H1312   1.047       .  S
C1313      C1314   1.402       .  A
C1313      C1318   1.405       .  A
C1313      H1320   1.084       .  S
C1314      C1315   1.418       .  A
C1315      C1316   1.411       .  A
C1315      N1322   1.438       .  S
C1316      C1317   1.405       .  A
C1316      H1321   1.083       .  S
C1317      C1318   1.419       .  A
C1318      N1319   1.433       .  S
N1319      H1323   1.045       .  S
N1319      H1324   1.045       .  S
N1322      H1325   1.045       .  S
N1322      H1326   1.046       .  S
C1327      C1328   1.407       .  A
C1327      H1334   1.083       .  S
C1328      C1329   1.415       .  A
C1329      N1336   1.438       .  S
C1330      C1331   1.407       .  A
C1330      H1335   1.083       .  S
C1331      C1332   1.413       .  A
C1332      N1333   1.439       .  S
N1333      H1337   1.046       .  S
N1333      H1338   1.046       .  S
N1336      H1339   1.046       .  S
C1341      C1342   1.398       .  A
C1341      C1346   1.404       .  A
C1341      H1348   1.084       .  S
C1342      C1855   1.420   1_554  A
C1343      C1854   1.421       .  A
C1343      C1344   1.404       .  A
C1343      N1350   1.433       .  S
C1344      C1345   1.398       .  A
C1344      H1349   1.084       .  S
C1345      C1858   1.422       .  A
C1346      C1857   1.420   1_554  A
C1346      N1347   1.433       .  S
N1347      H1351   1.046       .  S
N1347      H1352   1.046       .  S
N1350      H1353   1.046       .  S
N1350      H1354   1.046       .  S
C1355      C1356   1.415       .  A
C1355      C1360   1.410       .  A
C1355      H1362   1.083       .  S
C1356      C1357   1.410       .  A
C1357      C1358   1.412       .  A
C1357      N1364   1.438       .  S
C1358      C1359   1.415       .  A
C1358      H1363   1.083       .  S
C1359      C1360   1.408       .  A
C1360      N1361   1.437       .  S
N1361      H1365   1.046       .  S
N1361      H1366   1.046       .  S
N1364      H1367   1.046       .  S
N1364      H1368   1.046       .  S
C1369      C1370   1.402       .  A
C1369      C1374   1.405       .  A
C1369      H1376   1.084       .  S
C1370      C1371   1.416       .  A
C1371      C1372   1.406       .  A
C1371      N1378   1.439       .  S
C1372      C1373   1.405       .  A
C1372      H1377   1.084       .  S
C1373      C1374   1.418       .  A
C1374      N1375   1.438       .  S
N1375      H1379   1.046       .  S
N1375      H1380   1.043       .  S
N1378      H1381   1.048       .  S
N1378      H1382   1.044       .  S
C1383      C1384   1.406       .  A
C1383      H1390   1.083       .  S
C1384      C1385   1.427       .  A
C1385      C1386   1.401       .  A
C1385      N1392   1.433       .  S
C1386      H1391   1.084       .  S
C1387      C1388   1.415       .  A
C1388      N1389   1.432       .  S
N1389      H1393   1.046       .  S
N1389      H1394   1.045       .  S
N1392      H1395   1.045       .  S
N1392      H1396   1.045       .  S
C1397      C1910   1.413   1_554  A
C1397      C1402   1.404       .  A
C1397      H1404   1.083       .  S
C1398      C1909   1.413       .  A
C1398      C1399   1.407       .  A
C1399      C1400   1.406       .  A
C1399      N1406   1.438       .  S
C1400      C1913   1.414       .  A
C1400      H1405   1.084       .  S
C1401      C1912   1.413   1_554  A
C1401      C1402   1.407       .  A
C1402      N1403   1.438       .  S
N1403      H1407   1.045       .  S
N1403      H1408   1.046       .  S
N1406      H1409   1.045       .  S
N1406      H1410   1.046       .  S
C1411      C1412   1.409       .  A
C1411      C1416   1.407       .  A
C1411      H1418   1.083       .  S
C1412      C1413   1.413       .  A
C1413      C1414   1.396       .  A
C1413      N1420   1.439       .  S
C1414      C1415   1.406       .  A
C1414      H1419   1.084       .  S
C1415      C1416   1.409       .  A
C1416      N1417   1.438       .  S
N1417      H1421   1.046       .  S
N1417      H1422   1.046       .  S
N1420      H1423   1.045       .  S
N1420      H1424   1.046       .  S
C1425      C1426   1.405       .  A
C1425      C1430   1.399       .  A
C1425      H1432   1.084       .  S
C1426      C1427   1.420       .  A
C1427      C1428   1.414       .  A
C1427      N1946   1.437       .  S
C1428      C1429   1.402       .  A
C1428      H1433   1.083       .  S
C1429      C1430   1.411       .  A
C1430      N1431   1.434       .  S
N1431      H1435   1.045       .  S
N1431      H1436   1.044       .  S
N1434      C1939   1.438       .  S
N1434      H1437   1.046       .  S
N1434      H1438   1.046       .  S
C1439      C1952   1.403       .  A
C1439      H1446   1.084   1_556  S
C1440      C1951   1.403       .  A
C1440      C1441   1.409   1_655  A
C1441      N1448   1.434       .  S
C1442      C1955   1.403       .  A
C1442      H1447   1.084       .  S
C1443      C1954   1.403   1_554  A
C1443      C1444   1.413       .  A
C1444      N1445   1.439       .  S
N1445      H1450   1.046       .  S
N1448      H1451   1.045       .  S
C1453      C1454   1.399       .  A
C1453      C1458   1.408       .  A
C1453      H1460   1.084       .  S
C1454      C1455   1.422       .  A
C1455      C1456   1.410       .  A
C1455      N1462   1.439       .  S
C1456      C1457   1.400       .  A
C1456      H1461   1.084       .  S
C1457      C1458   1.419       .  A
C1458      N1459   1.438       .  S
N1459      H1463   1.046       .  S
N1459      H1464   1.046       .  S
N1462      H1465   1.046       .  S
N1462      H1466   1.046       .  S
C1467      C1468   1.409       .  A
C1467      C1472   1.396       .  A
C1467      H1474   1.084       .  S
C1468      C1469   1.414       .  A
C1469      C1470   1.404       .  A
C1469      N1476   1.432       .  S
C1470      C1471   1.410       .  A
C1470      H1475   1.083       .  S
C1471      C1472   1.409       .  A
C1472      N1473   1.434       .  S
N1473      H1477   1.046       .  S
N1473      H1478   1.046       .  S
N1476      H1479   1.045       .  S
N1476      H1480   1.046       .  S
C1481      C1482   1.404       .  A
C1481      C1486   1.394       .  A
C1481      H1488   1.083       .  S
C1482      C1483   1.419       .  A
C1483      C1484   1.408       .  A
C1483      N1490   1.438       .  S
C1484      C1485   1.400       .  A
C1484      H1489   1.084       .  S
C1485      C1486   1.410       .  A
C1486      N1487   1.440       .  S
N1487      H1491   1.046       .  S
N1487      H1492   1.045       .  S
N1490      H1493   1.046       .  S
N1490      H1494   1.046       .  S
C1495      C1496   1.406       .  A
C1495      C1500   1.403       .  A
C1495      H1502   1.084       .  S
C1496      C1497   1.414       .  A
C1497      C1498   1.405       .  A
C1497      N1504   1.432       .  S
C1498      C1499   1.407       .  A
C1498      H1503   1.083       .  S
C1499      C1500   1.415       .  A
C1500      N1501   1.433       .  S
N1501      H1505   1.046       .  S
N1501      H1506   1.046       .  S
N1504      H1507   1.046       .  S
N1504      H1508   1.046       .  S
C1509      C1514   1.409   1_455  A
C1509      H1516   1.083       .  S
C1510      C1511   1.417       .  A
C1511      C1512   1.406       .  A
C1511      N1518   1.433       .  S
C1512      H1517   1.084       .  S
C1513      C1514   1.420       .  A
C1514      N1515   1.438       .  S
N1515      H1519   1.046       .  S
N1515      H1520   1.046       .  S
N1518      H1521   1.046       .  S
N1518      H1522   1.046       .  S
C1523      C1524   1.404       .  A
C1523      H1530   1.083       .  S
C1524      C1525   1.415       .  A
C1525      N1532   1.434       .  S
C1526      C1527   1.405       .  A
C1526      H1531   1.084       .  S
C1527      C1528   1.411   1_655  A
C1528      N1529   1.433       .  S
N1529      H1533   1.046       .  S
N1529      H1534   1.044       .  S
N1532      H1535   1.044       .  S
N1532      H1536   1.046       .  S
O1537     Cr1555   1.967       .  S
O1537      C1545   1.255       .  A
O1538     Cr1555   2.050       .  S
O1538      C1539   1.275       .  A
C1539      O1540   1.253       .  A
C1539      C1980   1.482       .  S
O1540     Cr1556   1.933       .  S
O1541     Cr1556   2.026       .  S
O1541      C1542   1.269       .  A
C1542      O1543   1.249       .  A
C1542      C2036   1.473       .  S
O1543     Cr1557   1.953       .  S
O1544     Cr1557   2.024       .  S
O1544      C1545   1.269       .  A
C1545      C2022   1.496       .  S
O1546     Cr1555   2.055       .  S
O1546      C1554   1.280       .  A
O1547     Cr1555   1.969       .  S
O1547      C1548   1.260       .  A
C1548      O1549   1.271       .  A
C1548      C2008   1.495       .  S
O1549     Cr1556   2.030       .  S
O1550     Cr1556   1.964       .  S
O1550      C1551   1.260       .  A
C1551      O1552   1.273       .  A
C1551      C1994   1.488       .  S
O1552     Cr1557   2.024       .  S
O1553     Cr1557   1.943       .  S
O1553      C1554   1.253       .  A
C1554      C1966   1.491       .  S
Cr1555     O1558   1.763       .  S
Cr1556     O1558   1.762       .  S
Cr1557     O1558   1.756       .  S
O1559     Cr1577   1.970       .  S
O1559      C1567   1.255       .  A
O1560     Cr1577   2.040       .  S
O1560      C1561   1.274       .  A
C1561      O1562   1.253       .  A
C1561      C1927   1.484       .  S
O1562     Cr1578   1.937       .  S
O1563     Cr1578   2.023       .  S
O1563      C1564   1.268       .  A
C1564      O1565   1.249       .  A
C1564      C1952   1.468       .  S
O1565     Cr1579   1.944       .  S
O1566     Cr1579   2.027       .  S
O1566      C1567   1.268       .  A
C1567      C2025   1.496       .  S
O1568     Cr1577   2.050       .  S
O1568      C1576   1.279       .  A
O1569     Cr1577   1.970       .  S
O1569      C1570   1.260       .  A
C1570      O1571   1.271       .  A
C1570      C2011   1.496       .  S
O1571     Cr1578   2.027       .  S
O1572     Cr1578   1.970       .  S
C1573      O1574   1.275       .  A
C1573      C1938   1.492       .  S
O1575     Cr1579   1.932       .  S
O1575      C1576   1.253       .  A
C1576      C1910   1.487       .  S
Cr1577     O1580   1.763       .  S
Cr1578     O1580   1.763       .  S
Cr1579     O1580   1.755       .  S
O1581     Cr1599   2.058       .  S
O1581      C1589   1.280       .  A
O1582     Cr1599   1.965       .  S
O1582      C1583   1.259       .  A
C1583      O1584   1.267       .  A
C1583      C1885   1.484       .  S
O1584     Cr1600   2.016       .  S
O1585     Cr1600   1.961       .  S
O1585      C1586   1.259       .  A
C1586      O1587   1.270       .  A
C1586      C1924   1.477       .  S
O1587     Cr1601   2.021       .  S
O1588     Cr1601   1.937       .  S
O1588      C1589   1.252       .  A
C1589      C1871   1.489       .  S
O1590     Cr1599   1.963       .  S
O1590      C1598   1.254       .  A
O1591     Cr1599   2.053       .  S
O1591      C1592   1.277       .  A
C1592      O1593   1.254       .  A
C1592      C1941   1.484       .  S
O1593     Cr1600   1.941       .  S
O1594     Cr1600   2.017       .  S
O1594      C1595   1.266       .  A
C1595      O1596   1.250       .  A
C1595      C2039   1.466       .  S
O1596     Cr1601   1.948       .  S
O1597     Cr1601   2.022       .  S
O1597      C1598   1.268       .  A
C1598      C1899   1.493       .  S
Cr1599     O1602   1.761       .  S
Cr1600     O1602   1.763       .  S
Cr1601     O1602   1.756       .  S
O1603     Cr1621   2.054       .  S
O1603      C1611   1.279       .  A
O1604     Cr1621   1.966       .  S
O1604      C1605   1.259       .  A
C1605      O1606   1.269       .  A
C1605      C1882   1.483       .  S
O1606     Cr1622   2.017       .  S
O1607     Cr1622   1.970       .  S
C1608      O1609   1.273       .  A
C1608      C1983   1.484       .  S
O1610     Cr1623   1.939       .  S
O1610      C1611   1.251       .  A
C1611      C1854   1.490       .  S
O1612     Cr1621   1.965       .  S
O1612      C1620   1.253       .  A
O1613     Cr1621   2.041       .  S
O1613      C1614   1.274       .  A
C1614      O1615   1.256       .  A
C1614      C1997   1.473       .  S
O1615     Cr1622   1.945       .  S
O1616     Cr1622   2.021       .  S
O1616      C1617   1.267       .  A
C1617      O1618   1.251       .  A
C1617      C1955   1.467       .  S
O1618     Cr1623   1.951       .  S
O1619     Cr1623   2.020       .  S
O1619      C1620   1.267       .  A
C1620      C1896   1.495       .  S
Cr1621     O1624   1.764       .  S
Cr1622     O1624   1.765       .  S
Cr1623     O1624   1.756       .  S
O1625     Cr1643   2.055       .  S
O1625      C1633   1.280       .  A
O1626     Cr1643   1.967       .  S
O1626      C1627   1.260       .  A
C1627      O1628   1.269       .  A
C1627      C1840   1.492       .  S
O1628     Cr1644   2.025       .  S
O1629     Cr1644   1.964       .  S
C1630      O1631   1.276       .  A
C1630      C1798   1.490       .  S
O1632     Cr1645   1.933       .  S
O1632      C1633   1.252       .  A
C1633      C1913   1.486       .  S
O1634     Cr1643   1.962       .  S
O1634      C1642   1.254       .  A
O1635     Cr1643   2.052       .  S
O1635      C1636   1.277       .  A
C1636      O1637   1.254       .  A
C1636      C1812   1.486       .  S
O1637     Cr1644   1.935       .  S
O1638     Cr1644   2.025       .  S
O1638      C1639   1.268       .  A
C1639      O1640   1.248       .  A
C1639      C1787   1.466       .  S
O1640     Cr1645   1.945       .  S
O1641     Cr1645   2.027       .  S
O1641      C1642   1.269       .  A
C1642      C1829   1.495       .  S
Cr1643     O1646   1.760       .  S
Cr1644     O1646   1.760       .  S
Cr1645     O1646   1.755       .  S
O1647     Cr1665   2.059       .  S
O1647      C1655   1.280       .  A
O1648     Cr1665   1.966       .  S
O1648      C1649   1.259       .  A
C1649      O1650   1.268       .  A
C1649      C1843   1.489       .  S
O1650     Cr1666   2.018       .  S
O1651     Cr1666   1.960       .  S
O1651      C1652   1.257       .  A
C1652      O1653   1.271       .  A
C1652      C1756   1.481       .  S
O1653     Cr1667   2.015       .  S
O1654     Cr1667   1.938       .  S
O1654      C1655   1.252       .  A
C1655      C1969   1.492       .  S
O1656     Cr1665   1.967       .  S
O1656      C1664   1.255       .  A
O1657     Cr1665   2.048       .  S
O1657      C1658   1.276       .  A
C1658      O1659   1.251       .  A
C1658      C1770   1.477       .  S
O1659     Cr1666   1.928       .  S
O1660     Cr1666   2.024       .  S
O1660      C1661   1.268       .  A
C1661      O1662   1.252       .  A
C1661      C1742   1.474       .  S
O1662     Cr1667   1.952       .  S
O1663     Cr1667   2.020       .  S
O1663      C1664   1.268       .  A
C1664      C1826   1.490       .  S
Cr1665     O1668   1.763       .  S
Cr1666     O1668   1.764       .  S
Cr1667     O1668   1.755       .  S
O1669     Cr1687   1.977       .  S
O1669      C1677   1.257       .  A
O1670     Cr1687   2.040       .  S
O1670      C1671   1.273       .  A
C1671      O1672   1.252       .  A
C1671      C1759   1.467       .  S
O1672     Cr1688   1.931       .  S
O1673     Cr1688   2.021       .  S
O1673      C1674   1.266       .  A
C1674      O1675   1.251       .  A
C1674      C1784   1.468       .  S
O1675     Cr1689   1.950       .  S
O1676     Cr1689   2.021       .  S
O1676      C1677   1.267       .  A
C1677      C1717   1.498       .  S
O1678     Cr1687   2.051       .  S
O1678      C1686   1.278       .  A
O1679     Cr1687   1.970       .  S
O1679      C1680   1.260       .  A
C1680      O1681   1.268       .  A
C1680      C1728   1.482       .  S
O1681     Cr1688   2.014       .  S
O1682     Cr1688   1.966       .  S
C1683      O1684   1.272       .  A
C1683      C1773   1.482       .  S
O1685     Cr1689   1.937       .  S
O1685      C1686   1.252       .  A
C1686      C1857   1.486       .  S
Cr1687     O1690   1.765       .  S
Cr1688     O1690   1.765       .  S
Cr1689     O1690   1.750       .  S
O1691     Cr1709   1.974       .  S
O1691      C1699   1.257       .  A
O1692     Cr1709   2.050       .  S
O1692      C1693   1.276       .  A
C1693      O1694   1.251       .  A
C1693      C1801   1.481       .  S
O1694     Cr1710   1.933       .  S
O1695     Cr1710   2.026       .  S
O1695      C1696   1.270       .  A
C1696      O1697   1.250       .  A
C1696      C1745   1.474       .  S
O1697     Cr1711   1.948       .  S
O1698     Cr1711   2.023       .  S
O1698      C1699   1.267       .  A
C1699      C1714   1.498       .  S
O1700     Cr1709   2.057       .  S
O1700      C1708   1.281       .  A
O1701     Cr1709   1.969       .  S
O1701      C1702   1.260       .  A
C1702      O1703   1.271       .  A
C1702      C1731   1.490       .  S
O1703     Cr1710   2.027       .  S
O1704     Cr1710   1.967       .  S
O1704      C1705   1.260       .  A
C1705      O1706   1.270       .  A
C1705      C1815   1.489       .  S
O1706     Cr1711   2.021       .  S
O1707     Cr1711   1.939       .  S
O1707      C1708   1.253       .  A
C1708      C1868   1.490       .  S
Cr1709     O1712   1.764       .  S
Cr1710     O1712   1.763       .  S
Cr1711     O1712   1.756       .  S
C1713      C1714   1.408       .  A
C1713      C1718   1.406       .  A
C1713      H1720   1.084       .  S
C1714      C1715   1.415       .  A
C1715      C1716   1.413       .  A
C1715      N1722   1.437       .  S
C1716      C1717   1.410       .  A
C1716      H1721   1.083       .  S
C1717      C1718   1.412       .  A
C1718      N1719   1.432       .  S
N1719      H1723   1.046       .  S
N1719      H1724   1.045       .  S
N1722      H1725   1.045       .  S
N1722      H1726   1.046       .  S
C1727      C1728   1.407       .  A
C1727      H1734   1.083       .  S
C1728      C1729   1.410       .  A
C1729      N1736   1.433       .  S
C1730      C1731   1.406       .  A
C1730      H1735   1.084       .  S
C1731      C1732   1.413       .  A
C1732      N1733   1.438       .  S
N1733      H1738   1.046       .  S
N1736      H1739   1.046       .  S
N1736      H1740   1.045       .  S
C1741      C1742   1.403   1_545  A
C1741      C1746   1.399       .  A
C1741      H1748   1.084       .  S
C1742      C1743   1.412       .  A
C1743      C1744   1.396       .  A
C1743      N1750   1.433       .  S
C1744      C1745   1.402   1_565  A
C1744      H1749   1.084       .  S
C1745      C1746   1.415       .  A
C1746      N1747   1.433       .  S
N1747      H1751   1.044       .  S
N1747      H1752   1.045       .  S
N1750      H1753   1.046       .  S
N1750      H1754   1.046       .  S
C1755      C1756   1.404       .  A
C1755      C1760   1.392   1_565  A
C1755      H1762   1.084       .  S
C1756      C1757   1.417       .  A
C1757      C1758   1.406   1_565  A
C1757      N1764   1.432       .  S
C1758      C1759   1.401       .  A
C1758      H1763   1.084       .  S
C1759      C1760   1.409       .  A
C1760      N1761   1.435       .  S
N1761      H1765   1.045       .  S
N1761      H1766   1.045   1_545  S
N1764      H1767   1.046   1_565  S
N1764      H1768   1.046       .  S
C1769      C1770   1.402       .  A
C1769      C1774   1.407       .  A
C1769      H1776   1.084       .  S
C1770      C1771   1.415   1_565  A
C1771      C1772   1.393       .  A
C1771      N1778   1.435       .  S
C1772      C1773   1.401       .  A
C1772      H1777   1.084       .  S
C1773      C1774   1.416   1_545  A
C1774      N1775   1.432       .  S
N1775      H1779   1.046       .  S
N1775      H1780   1.046       .  S
N1778      H1781   1.046       .  S
N1778      H1782   1.044       .  S
C1783      C1788   1.397       .  A
C1783      H1790   1.084       .  S
C1784      C1785   1.411       .  A
C1785      C1786   1.401       .  A
C1785      N1792   1.438       .  S
C1786      H1791   1.084       .  S
C1787      C1788   1.411       .  A
C1788      N1789   1.434       .  S
N1789      H1793   1.047       .  S
N1789      H1794   1.043       .  S
N1792      H1795   1.045       .  S
N1792      H1796   1.046       .  S
C1797      C1798   1.402       .  A
C1797      C1802   1.396   1_565  A
C1797      H1804   1.084       .  S
C1798      C1799   1.427   1_565  A
C1799      C1800   1.404       .  A
C1799      N1806   1.433       .  S
C1800      C1801   1.400       .  A
C1800      H1805   1.084       .  S
C1801      C1802   1.414       .  A
C1802      N1803   1.434   1_545  S
N1803      H1807   1.044   1_565  S
N1803      H1808   1.046       .  S
N1806      H1810   1.045   1_556  S
C1811      C1812   1.407   1_545  A
C1811      C1816   1.399       .  A
C1811      H1818   1.084       .  S
C1812      C1813   1.413       .  A
C1813      C1814   1.405   1_565  A
C1813      N1820   1.432       .  S
C1814      C1815   1.412       .  A
C1814      H1819   1.083       .  S
C1815      C1816   1.413       .  A
C1816      N1817   1.439       .  S
N1817      H1821   1.045       .  S
N1817      H1822   1.046       .  S
N1820      H1823   1.044       .  S
N1820      H1824   1.046       .  S
C1825      C1826   1.402       .  A
C1825      C1830   1.404       .  A
C1825      H1832   1.084       .  S
C1826      C1827   1.417       .  A
C1827      C1828   1.410       .  A
C1827      N1834   1.438       .  S
C1828      C1829   1.405       .  A
C1828      H1833   1.083       .  S
C1829      C1830   1.418       .  A
C1830      N1831   1.433       .  S
N1831      H1835   1.046       .  S
N1831      H1836   1.046       .  S
N1834      H1837   1.046       .  S
N1834      H1838   1.045       .  S
C1839      C1840   1.407       .  A
C1839      H1846   1.083       .  S
C1840      C1841   1.414       .  A
C1841      N1848   1.438       .  S
C1842      C1843   1.408       .  A
C1842      H1847   1.083       .  S
C1843      C1844   1.415       .  A
C1844      N1845   1.438       .  S
N1845      H1849   1.046       .  S
N1845      H1850   1.046       .  S
N1848      H1851   1.046       .  S
C1853      C1854   1.399       .  A
C1853      C1858   1.405       .  A
C1853      H1860   1.084       .  S
C1855      C1856   1.404       .  A
C1855      N1862   1.434       .  S
C1856      C1857   1.399       .  A
C1856      H1861   1.084       .  S
C1858      N1859   1.433       .  S
N1859      H1863   1.046       .  S
N1859      H1864   1.046       .  S
N1862      H1865   1.046       .  S
N1862      H1866   1.045       .  S
C1867      C1868   1.414       .  A
C1867      C1872   1.409       .  A
C1867      H1874   1.084       .  S
C1868      C1869   1.408       .  A
C1869      C1870   1.407       .  A
C1869      N1876   1.438       .  S
C1870      C1871   1.412       .  A
C1870      H1875   1.084       .  S
C1871      C1872   1.408       .  A
C1872      N1873   1.438       .  S
N1873      H1877   1.046       .  S
N1873      H1878   1.045       .  S
N1876      H1879   1.046       .  S
N1876      H1880   1.046       .  S
C1881      C1882   1.403       .  A
C1881      C1886   1.406       .  A
C1881      H1888   1.084       .  S
C1882      C1883   1.415       .  A
C1883      C1884   1.403       .  A
C1883      N1890   1.439       .  S
C1884      C1885   1.404       .  A
C1884      H1889   1.084       .  S
C1885      C1886   1.416       .  A
C1886      N1887   1.438       .  S
N1887      H1891   1.046       .  S
N1887      H1892   1.045       .  S
N1890      H1893   1.046       .  S
N1890      H1894   1.045       .  S
C1895      C1896   1.406       .  A
C1895      H1902   1.084       .  S
C1896      C1897   1.424       .  A
C1897      C1898   1.400       .  A
C1897      N1904   1.433       .  S
C1898      H1903   1.084       .  S
C1899      C1900   1.416       .  A
C1900      N1901   1.433       .  S
N1901      H1905   1.046       .  S
N1901      H1906   1.046       .  S
N1904      H1907   1.045       .  S
N1904      H1908   1.045       .  S
C1909      C1914   1.405       .  A
C1909      H1916   1.084       .  S
C1910      C1911   1.408       .  A
C1911      C1912   1.406       .  A
C1911      N1918   1.438       .  S
C1912      H1917   1.084       .  S
C1913      C1914   1.407       .  A
C1914      N1915   1.438       .  S
N1915      H1919   1.046       .  S
N1915      H1920   1.046       .  S
N1918      H1921   1.045       .  S
N1918      H1922   1.046       .  S
C1923      C1924   1.409       .  A
C1923      C1928   1.403       .  A
C1923      H1930   1.084       .  S
C1924      C1925   1.408       .  A
C1925      C1926   1.400       .  A
C1925      N1932   1.439       .  S
C1926      C1927   1.411       .  A
C1926      H1931   1.083       .  S
C1927      C1928   1.407       .  A
C1928      N1929   1.432       .  S
N1929      H1933   1.045       .  S
N1929      H1934   1.046       .  S
N1932      H1935   1.045       .  S
N1932      H1936   1.046       .  S
C1937      C1938   1.404       .  A
C1937      C1942   1.398       .  A
C1937      H1944   1.084       .  S
C1938      C1939   1.421       .  A
C1939      C1940   1.413       .  A
C1940      C1941   1.402       .  A
C1940      H1945   1.083       .  S
C1941      C1942   1.413       .  A
C1942      N1943   1.434       .  S
N1943      H1947   1.046       .  S
N1943      H1948   1.044       .  S
N1946      H1949   1.046       .  S
N1946      H1950   1.046       .  S
C1951      H1958   1.084       .  S
C1952      C1953   1.411   1_655  A
C1953      N1960   1.434       .  S
C1954      H1959   1.084       .  S
C1955      C1956   1.412       .  A
C1956      N1957   1.439       .  S
N1957      H1962   1.045       .  S
N1960      H1963   1.045       .  S
C1965      C1966   1.398       .  A
C1965      C1970   1.407       .  A
C1965      H1972   1.084       .  S
C1966      C1967   1.422       .  A
C1967      C1968   1.410       .  A
C1967      N1974   1.439       .  S
C1968      C1969   1.401       .  A
C1968      H1973   1.084       .  S
C1969      C1970   1.422       .  A
C1970      N1971   1.439       .  S
N1971      H1975   1.046       .  S
N1971      H1976   1.045       .  S
N1974      H1977   1.045       .  S
N1974      H1978   1.046       .  S
C1979      C1980   1.407       .  A
C1979      C1984   1.394       .  A
C1979      H1986   1.084       .  S
C1980      C1981   1.413       .  A
C1981      C1982   1.404       .  A
C1981      N1988   1.432       .  S
C1982      C1983   1.411       .  A
C1982      H1987   1.083       .  S
C1983      C1984   1.409       .  A
C1984      N1985   1.433       .  S
N1985      H1989   1.046       .  S
N1985      H1990   1.046       .  S
N1988      H1991   1.045       .  S
N1988      H1992   1.046       .  S
C1993      C1994   1.406       .  A
C1993      C1998   1.399       .  A
C1993      H2000   1.083       .  S
C1994      C1995   1.419       .  A
C1995      C1996   1.410       .  A
C1995      N2002   1.438       .  S
C1996      C1997   1.402       .  A
C1996      H2001   1.084       .  S
C1997      C1998   1.409       .  A
C1998      N1999   1.439       .  S
N1999      H2003   1.044       .  S
N1999      H2004   1.047       .  S
N2002      H2005   1.046       .  S
N2002      H2006   1.046       .  S
C2007      C2008   1.407       .  A
C2007      C2012   1.404       .  A
C2007      H2014   1.084       .  S
C2008      C2009   1.414       .  A
C2009      C2010   1.408       .  A
C2009      N2016   1.432       .  S
C2010      C2011   1.408       .  A
C2010      H2015   1.083       .  S
C2011      C2012   1.416       .  A
C2012      N2013   1.433       .  S
N2013      H2017   1.046       .  S
N2013      H2018   1.046       .  S
N2016      H2019   1.046       .  S
N2016      H2020   1.046       .  S
C2021      C2026   1.410   1_455  A
C2021      H2028   1.083       .  S
C2022      C2023   1.417       .  A
C2023      C2024   1.405       .  A
C2023      N2030   1.433       .  S
C2024      H2029   1.084       .  S
C2025      C2026   1.418       .  A
C2026      N2027   1.438       .  S
N2027      H2031   1.046       .  S
N2027      H2032   1.045       .  S
N2030      H2033   1.046       .  S
N2030      H2034   1.046       .  S
C2035      C2036   1.403       .  A
C2035      H2042   1.084       .  S
C2036      C2037   1.417       .  A
C2037      N2044   1.434       .  S
C2038      C2039   1.406       .  A
C2038      H2043   1.084       .  S
C2039      C2040   1.413   1_655  A
C2040      N2041   1.434       .  S
N2041      H2045   1.045       .  S
N2041      H2046   1.044       .  S
N2044      H2047   1.044       .  S
N2044      H2048   1.046       .  S
