geometry optimzed in LAMMPS
_audit_creation_date              2020-12-01 
_audit_creation_method            'lammps2cif' 
_symmetry_space_group_name_H-M    'P1' 
_symmetry_Int_Tables_number       1 
_symmetry_cell_setting            triclinic 
loop_ 
_symmetry_equiv_pos_as_xyz 
  x,y,z 
_cell_length_a                    58.96553523 
_cell_length_b                    48.16190629859282 
_cell_length_c                    28.4748568562671 
_cell_angle_alpha                 90.12918794910024 
_cell_angle_beta                  90.06089938291815 
_cell_angle_gamma                 89.94084562832423 
loop_ 
_atom_site_label 
_atom_site_type_symbol 
_atom_site_fract_x 
_atom_site_fract_y 
_atom_site_fract_z 
_atom_site_charge 
Fe1        Fe  0.37613871  0.86682845  0.65257739     1.65800
Fe2        Fe  0.34076897  0.86074146  0.56001525     1.73200
Fe3        Fe  0.37339680  0.80681542  0.59182727     1.54400
O4          O  0.40706397  0.81550006  0.60935259    -0.80200
O5          O  0.31830021  0.83039172  0.57646000    -0.78500
O6          O  0.40877157  0.86010174  0.63020692    -0.82700
O7          O  0.37854039  0.83286111  0.69912638    -0.77600
O8          O  0.38172875  0.81414865  0.52347589    -0.79400
O9          O  0.32549728  0.88459112  0.61332767    -0.82100
C10         C  0.37236699  0.80745238  0.69728586     0.98700
C11         C  0.41831635  0.83737283  0.61908094     1.06100
O12         O  0.36362587  0.84482360  0.60137827    -1.11100
O13         O  0.36227638  0.89219477  0.54185796    -0.73500
O14         O  0.37589086  0.90368248  0.61220716    -0.77000
O15         O  0.36580901  0.79640865  0.65930018    -0.77700
C16         C  0.37252778  0.90908016  0.56871741     0.97600
O17         O  0.34412722  0.87383747  0.67854592    -0.75700
O18         O  0.35144006  0.83773610  0.50064467    -0.80800
C19         C  0.32128001  0.80454954  0.57173075     1.00200
C20         C  0.36801909  0.82146990  0.49167592     1.06100
O21         O  0.34093517  0.79345297  0.57234405    -0.76500
C22         C  0.32634685  0.88225676  0.65791331     1.04400
Fe23       Fe  0.63451749  0.85933697  0.63834696     1.65800
Fe24       Fe  0.66832086  0.84975127  0.54411779     1.73200
Fe25       Fe  0.63261200  0.79915115  0.57637470     1.54400
O26         O  0.64063892  0.78750566  0.64326659    -0.80200
O27         O  0.65580814  0.82777102  0.48567277    -0.78500
O28         O  0.63265619  0.82544771  0.68510406    -0.82700
O29         O  0.60088609  0.85462523  0.61931808    -0.77600
O30         O  0.66372451  0.78275495  0.55325782    -0.79400
O31         O  0.64910677  0.88363604  0.52675399    -0.82100
C32         C  0.58996098  0.83282470  0.60834079     0.98700
C33         C  0.63719601  0.79949868  0.68229398     1.06100
O34         O  0.64490937  0.83622374  0.58636615    -1.11100
O35         O  0.68577349  0.87203351  0.59533198    -0.73500
O36         O  0.66737376  0.86534540  0.66228452    -0.77000
O37         O  0.59988925  0.81032388  0.59685034    -0.77700
C38         C  0.68526791  0.87156244  0.63991828     0.97600
O39         O  0.63519374  0.89578371  0.59692179    -0.75700
O40         O  0.68864202  0.81713840  0.56073761    -0.80800
C41         C  0.63825168  0.81319135  0.47700625     1.00200
C42         C  0.68398678  0.79198935  0.55274654     1.06100
O43         O  0.62379497  0.80826014  0.50868655    -0.76500
C44         C  0.63965092  0.90116802  0.55383933     1.04400
Fe45       Fe  0.63363713  0.63643634  0.13509366     1.65800
Fe46       Fe  0.67053816  0.64499501  0.04647932     1.73200
Fe47       Fe  0.63567774  0.69688870  0.07632806     1.54400
O48         O  0.60231079  0.68747096  0.09448370    -0.80200
O49         O  0.69138369  0.67629497  0.06722567    -0.78500
O50         O  0.60111354  0.64220028  0.11031876    -0.82700
O51         O  0.63024073  0.67011093  0.18231087    -0.77600
O52         O  0.62799830  0.68873661  0.00762008    -0.79400
O53         O  0.68527589  0.62103915  0.09959068    -0.82100
C54         C  0.63669198  0.69547204  0.18152941     0.98700
C55         C  0.59131917  0.66518126  0.10204270     1.06100
O56         O  0.64631768  0.65927735  0.08577085    -1.11100
O57         O  0.65067629  0.61280380  0.02473182    -0.73500
O58         O  0.63567447  0.60009311  0.09323289    -0.77000
O59         O  0.64309838  0.70716071  0.14402623    -0.77700
C60         C  0.64050592  0.59517260  0.05010443     0.97600
O61         O  0.66533172  0.63046437  0.16356144    -0.75700
O62         O  0.66018923  0.66813511  0.98752834    -0.80800
C63         C  0.68756139  0.70147336  0.05787793     1.00200
C64         C  0.64293509  0.68295490  0.97715374     1.06100
O65         O  0.66756823  0.71145037  0.05626898    -0.76500
C66         C  0.68369777  0.62316323  0.14402126     1.04400
Fe67       Fe  0.37638829  0.64356025  0.15137633     1.65800
Fe68       Fe  0.34185378  0.65227500  0.05811600     1.73200
Fe69       Fe  0.37674663  0.70400037  0.09039125     1.54400
O70         O  0.37019022  0.71482815  0.15847214    -0.80200
O71         O  0.35302407  0.67464485  0.99961397    -0.78500
O72         O  0.37869457  0.67695384  0.19932088    -0.82700
O73         O  0.40964796  0.64894552  0.13071341    -0.77600
O74         O  0.34486801  0.71961921  0.07219744    -0.79400
O75         O  0.36193358  0.61947710  0.03945595    -0.82100
C76         C  0.42017674  0.67056961  0.11741635     0.98700
C77         C  0.37410300  0.70286161  0.19720855     1.06100
O78         O  0.36522599  0.66658154  0.09997693    -1.11100
O79         O  0.32571026  0.62880636  0.10934133    -0.73500
O80         O  0.34397285  0.63698016  0.17611730    -0.77000
O81         O  0.40989546  0.69289653  0.10648836    -0.77700
C82         C  0.32640045  0.62930002  0.15391254     0.97600
O83         O  0.37514700  0.60721471  0.10976151    -0.75700
O84         O  0.32078983  0.68401476  0.07575659    -0.80800
C85         C  0.36998015  0.68992079  0.98998666     1.00200
C86         C  0.32483825  0.70967871  0.07168001     1.06100
O87         O  0.38428250  0.69675572  0.02106186    -0.76500
C88         C  0.37086120  0.60167308  0.06668831     1.04400
Fe89       Fe  0.13269898  0.86172464  0.85128656     1.65800
Fe90       Fe  0.16805269  0.85843862  0.94301129     1.73200
Fe91       Fe  0.13649593  0.80306533  0.91562666     1.54400
O92         O  0.10282524  0.81026555  0.89577269    -0.80200
O93         O  0.19039589  0.82822472  0.92570770    -0.78500
O94         O  0.10033869  0.85485678  0.87521557    -0.82700
O95         O  0.13112929  0.82646391  0.80706698    -0.77600
O96         O  0.12768139  0.81225302  0.98349713    -0.79400
O97         O  0.18239666  0.88205966  0.88886333    -0.82100
C98         C  0.13850821  0.80152840  0.81008770     0.98700
C99         C  0.09122114  0.83192549  0.88636056     1.06100
O100        O  0.14542226  0.84116133  0.90349052    -1.11100
O101        O  0.14622047  0.88961907  0.96053767    -0.73500
O102        O  0.13277853  0.89959201  0.88938113    -0.77000
O103        O  0.14495991  0.79133270  0.84886608    -0.77700
C104        C  0.13640781  0.90611729  0.93240721     0.97600
O105        O  0.16447326  0.86903230  0.82415626    -0.75700
O106        O  0.15829401  0.83614399  0.00344296    -0.80800
C107        C  0.18823292  0.80332061  0.93857163     1.00200
C108        C  0.14196305  0.81995308  0.01413118     1.06100
O109        O  0.16900462  0.79119443  0.93871026    -0.76500
C110        C  0.18178003  0.87909209  0.84441246     1.04400
Fe111      Fe  0.87842269  0.85826019  0.84044846     1.65800
Fe112      Fe  0.84272589  0.85363483  0.93192308     1.73200
Fe113      Fe  0.87535072  0.79901889  0.90396830     1.54400
O114        O  0.86804353  0.78745526  0.83646165    -0.80200
O115        O  0.85286886  0.83177868  0.99243053    -0.78500
O116        O  0.88070814  0.82356347  0.79563760    -0.82700
O117        O  0.91086945  0.85157589  0.86420262    -0.77600
O118        O  0.84280382  0.78595950  0.92452254    -0.79400
O119        O  0.86340445  0.88591510  0.94982463    -0.82100
C120        C  0.92033397  0.82897841  0.87633785     0.98700
C121        C  0.87414155  0.79833821  0.79800360     1.06100
O122        O  0.86584903  0.83709142  0.89233427    -1.11100
O123        O  0.82796546  0.87660312  0.87787787    -0.73500
O124        O  0.84649151  0.86532319  0.81278918    -0.77000
O125        O  0.90905386  0.80725272  0.88657849    -0.77700
C126        C  0.82876544  0.87394908  0.83344608     0.97600
O127        O  0.87783162  0.89576615  0.87919116    -0.75700
O128        O  0.82098131  0.82292082  0.91436151    -0.80800
C129        C  0.86934006  0.81576562  0.00304721     1.00200
C130        C  0.82333868  0.79754423  0.92396286     1.06100
O131        O  0.88337207  0.80771197  0.97229570    -0.76500
C132        C  0.87313079  0.90239674  0.92163877     1.04400
Fe133      Fe  0.87809972  0.63959938  0.33965796     1.65800
Fe134      Fe  0.84353833  0.64304643  0.43252452     1.73200
Fe135      Fe  0.87544392  0.69824865  0.40476501     1.54400
O136        O  0.90922915  0.68972693  0.38616322    -0.80200
O137        O  0.82115415  0.67347576  0.41704777    -0.78500
O138        O  0.91074725  0.64543570  0.36293979    -0.82700
O139        O  0.88030996  0.67460524  0.29581043    -0.77600
O140        O  0.88395110  0.68936364  0.47293296    -0.79400
O141        O  0.82856765  0.62017538  0.37778825    -0.82100
C142        C  0.87326513  0.69962383  0.29884435     0.98700
C143        C  0.92042380  0.66788467  0.37527826     1.06100
O144        O  0.86603208  0.66029727  0.39261075    -1.11100
O145        O  0.86535661  0.61135540  0.44895059    -0.73500
O146        O  0.87709903  0.60140923  0.37639202    -0.77000
O147        O  0.86754600  0.71020178  0.33782024    -0.77700
C148        C  0.87397587  0.59469246  0.41938322     0.97600
O149        O  0.84606258  0.63395787  0.31328113    -0.75700
O150        O  0.85361908  0.66490452  0.49297006    -0.80800
C151        C  0.82315214  0.69921699  0.42450294     1.00200
C152        C  0.86994614  0.68110953  0.50346714     1.06100
O153        O  0.84256675  0.71106215  0.42541934    -0.76500
C154        C  0.82865510  0.62440953  0.33360659     1.04400
Fe155      Fe  0.13552525  0.64174582  0.35016536     1.65800
Fe156      Fe  0.16909136  0.64730822  0.44562474     1.73200
Fe157      Fe  0.13567248  0.70109347  0.41550392     1.54400
O158        O  0.14343089  0.71325926  0.34827253    -0.80200
O159        O  0.15739211  0.66822769  0.50525328    -0.78500
O160        O  0.13517954  0.67617713  0.30473086    -0.82700
O161        O  0.10222358  0.64832911  0.36815374    -0.77600
O162        O  0.16746071  0.71528761  0.43822216    -0.79400
O163        O  0.14834982  0.61459422  0.46057625    -0.82100
C164        C  0.09196358  0.67002148  0.38202448     0.98700
C165        C  0.14009846  0.70192367  0.30857435     1.06100
O166        O  0.14650717  0.66335761  0.40375620    -1.11100
O167        O  0.18587298  0.62508888  0.39354272    -0.73500
O168        O  0.16796514  0.63402430  0.32669888    -0.77000
O169        O  0.10240959  0.69157450  0.39640734    -0.77700
C170        C  0.18542617  0.62626708  0.34903427     0.97600
O171        O  0.13450612  0.60461916  0.38967977    -0.75700
O172        O  0.19067120  0.67898336  0.43202119    -0.80800
C173        C  0.14088693  0.68419017  0.51530040     1.00200
C174        C  0.18704632  0.70423396  0.44156025     1.06100
O175        O  0.12717228  0.69245545  0.48398178    -0.76500
C176        C  0.13815434  0.59823335  0.43269338     1.04400
Fe177      Fe  0.63327512  0.35684027  0.83809265     1.65800
Fe178      Fe  0.66842924  0.35073835  0.93032354     1.73200
Fe179      Fe  0.63272194  0.29885596  0.90434657     1.54400
O180        O  0.59954840  0.31009752  0.88761395    -0.80200
O181        O  0.68900222  0.31841422  0.91391666    -0.78500
O182        O  0.60056285  0.35378738  0.86214995    -0.82700
O183        O  0.62920408  0.32168806  0.79440092    -0.77600
O184        O  0.62559550  0.30965438  0.97213384    -0.79400
O185        O  0.68379662  0.37289901  0.87591296    -0.82100
C186        C  0.63403285  0.29587887  0.79816455     0.98700
C187        C  0.58971065  0.33280076  0.87691136     1.06100
O188        O  0.64464183  0.33546313  0.89080610    -1.11100
O189        O  0.64864078  0.38409814  0.94696384    -0.73500
O190        O  0.63618466  0.39476590  0.87511471    -0.77000
O191        O  0.63886374  0.28513392  0.83747327    -0.77700
C192        C  0.64079583  0.40145402  0.91760752     0.97600
O193        O  0.66542578  0.36082309  0.81106984    -0.75700
O194        O  0.65797640  0.32952509  0.99136586    -0.80800
C195        C  0.68478049  0.29324546  0.92286567     1.00200
C196        C  0.64072385  0.31495940  0.00225725     1.06100
O197        O  0.66463041  0.28359287  0.92426931    -0.76500
C198        C  0.68295926  0.37018246  0.83147749     1.04400
Fe199      Fe  0.37579271  0.36436435  0.85657967     1.65800
Fe200      Fe  0.33917253  0.35563891  0.94556796     1.73200
Fe201      Fe  0.37531780  0.30445896  0.91810953     1.54400
O202        O  0.36847530  0.29307282  0.85056687    -0.80200
O203        O  0.35002129  0.33389837  0.00545779    -0.78500
O204        O  0.37922607  0.33039892  0.81032126    -0.82700
O205        O  0.40843939  0.35966718  0.88046318    -0.77600
O206        O  0.34369564  0.28882668  0.93779499    -0.79400
O207        O  0.35822257  0.38879197  0.96587277    -0.82100
C208        C  0.41882960  0.33741940  0.89071696     0.98700
C209        C  0.37364015  0.30477519  0.81224220     1.06100
O210        O  0.36372168  0.34163537  0.90690058    -1.11100
O211        O  0.32362510  0.37838535  0.89179616    -0.73500
O212        O  0.34409179  0.36989531  0.82818038    -0.77000
O213        O  0.40848071  0.31495732  0.90034374    -0.77700
C214        C  0.32565837  0.37717239  0.84735561     0.97600
O215        O  0.37358747  0.40097654  0.89749298    -0.75700
O216        O  0.31926130  0.32330683  0.92617498    -0.80800
C217        C  0.36748897  0.31977973  0.01689378     1.00200
C218        C  0.32352852  0.29818568  0.93521670     1.06100
O219        O  0.38253014  0.31343001  0.98695440    -0.76500
C220        C  0.36833899  0.40632660  0.94022652     1.04400
Fe221      Fe  0.37730208  0.14560873  0.35473968     1.65800
Fe222      Fe  0.34301283  0.15160977  0.44789309     1.73200
Fe223      Fe  0.37744786  0.20434453  0.42050238     1.54400
O224        O  0.41043222  0.19471427  0.39922684    -0.80200
O225        O  0.32247725  0.18382420  0.43176585    -0.78500
O226        O  0.41061710  0.15057842  0.37486510    -0.82700
O227        O  0.37948165  0.18068836  0.31122642    -0.77600
O228        O  0.38651635  0.19372405  0.48739044    -0.79400
O229        O  0.32655856  0.12962474  0.39458379    -0.82100
C230        C  0.37374652  0.20620884  0.31489344     0.98700
C231        C  0.42087328  0.17279658  0.38634448     1.06100
O232        O  0.36637568  0.16699358  0.40793481    -1.11100
O233        O  0.36283129  0.11839249  0.46406845    -0.73500
O234        O  0.37630104  0.10773866  0.39300967    -0.77000
O235        O  0.36901894  0.21719633  0.35423904    -0.77700
C236        C  0.37183335  0.10129330  0.43572514     0.97600
O237        O  0.34471132  0.14062622  0.32945581    -0.75700
O238        O  0.35476169  0.17257043  0.50796208    -0.80800
C239        C  0.32614857  0.20812098  0.44639814     1.00200
C240        C  0.37205107  0.18727012  0.51828386     1.06100
O241        O  0.34591843  0.21884746  0.44578940    -0.76500
C242        C  0.32687566  0.13268244  0.35027155     1.04400
Fe243      Fe  0.63448738  0.13676280  0.33832864     1.65800
Fe244      Fe  0.66830874  0.14086780  0.43318325     1.73200
Fe245      Fe  0.63742109  0.19657121  0.40166647     1.54400
O246        O  0.64624938  0.20747369  0.33451880    -0.80200
O247        O  0.65642499  0.16244904  0.49294923    -0.78500
O248        O  0.63415876  0.17114723  0.29294524    -0.82700
O249        O  0.60159160  0.14493136  0.35902662    -0.77600
O250        O  0.66963081  0.20899076  0.42559769    -0.79400
O251        O  0.64665689  0.10891146  0.44826959    -0.82100
C252        C  0.59231629  0.16777602  0.37080809     0.98700
C253        C  0.64069107  0.19637247  0.29572420     1.06100
O254        O  0.64647540  0.15800894  0.39119476    -1.11100
O255        O  0.68494333  0.11847676  0.37998804    -0.73500
O256        O  0.66684769  0.12811671  0.31356035    -0.77000
O257        O  0.60395186  0.18919643  0.38134739    -0.77700
C258        C  0.68450849  0.12010624  0.33529835     0.97600
O259        O  0.63293912  0.09939599  0.37717987    -0.75700
O260        O  0.69088423  0.17118816  0.41947059    -0.80800
C261        C  0.64029706  0.17938969  0.50190373     1.00200
C262        C  0.68871479  0.19664184  0.42864369     1.06100
O263        O  0.62776529  0.18895961  0.46960117    -0.76500
C264        C  0.63619087  0.09291591  0.42024701     1.04400
Fe265      Fe  0.87672376  0.35927741  0.63865155     1.65800
Fe266      Fe  0.84109845  0.35183093  0.54718008     1.73200
Fe267      Fe  0.87694178  0.30004313  0.57435228     1.54400
O268        O  0.91007412  0.31134267  0.59008948    -0.80200
O269        O  0.82060807  0.31952195  0.56449977    -0.78500
O270        O  0.90961198  0.35506004  0.61554283    -0.82700
O271        O  0.88032500  0.32494186  0.68405332    -0.77600
O272        O  0.88359325  0.30899480  0.50537548    -0.79400
O273        O  0.82560904  0.37452195  0.60120779    -0.82100
C274        C  0.87609710  0.29897752  0.68076551     0.98700
C275        C  0.92026470  0.33363565  0.60161666     1.06100
O276        O  0.86513101  0.33704781  0.58675789    -1.11100
O277        O  0.86087781  0.38502220  0.52873735    -0.73500
O278        O  0.87440784  0.39652399  0.59947835    -0.77000
O279        O  0.87136573  0.28752897  0.64189625    -0.77700
C280        C  0.87023553  0.40228064  0.55640286     0.97600
O281        O  0.84473699  0.36437186  0.66586755    -0.75700
O282        O  0.85154214  0.33016333  0.48673571    -0.80800
C283        C  0.82489607  0.29405725  0.55781296     1.00200
C284        C  0.86859706  0.31531276  0.47544185     1.06100
O285        O  0.84504921  0.28446459  0.55646319    -0.76500
C286        C  0.82686878  0.37285106  0.64574856     1.04400
Fe287      Fe  0.13323956  0.36466634  0.64669165     1.65800
Fe288      Fe  0.16908777  0.35502763  0.55654361     1.73200
Fe289      Fe  0.13552051  0.30269744  0.59130155     1.54400
O290        O  0.14255246  0.29438761  0.65967318    -0.80200
O291        O  0.15866583  0.33074023  0.49915841    -0.78500
O292        O  0.13058871  0.33234750  0.69653625    -0.82700
O293        O  0.10081729  0.35809564  0.62243605    -0.77600
O294        O  0.16796681  0.28787558  0.57453315    -0.79400
O295        O  0.14837483  0.38653777  0.53455229    -0.82100
C296        C  0.09111977  0.33531966  0.61248922     0.98700
C297        C  0.13739335  0.30713864  0.69702084     1.06100
O298        O  0.14572698  0.34082268  0.59801994    -1.11100
O299        O  0.18410631  0.38013031  0.60792901    -0.73500
O300        O  0.16510766  0.37186333  0.67342836    -0.77000
O301        O  0.10191395  0.31264408  0.60677041    -0.77700
C302        C  0.18307887  0.37931793  0.65256421     0.97600
O303        O  0.13442469  0.40017687  0.60343986    -0.75700
O304        O  0.19075930  0.32466166  0.57711058    -0.80800
C305        C  0.14195425  0.31474276  0.49052709     1.00200
C306        C  0.18769623  0.29872112  0.57481708     1.06100
O307        O  0.12789974  0.30809840  0.52203906    -0.76500
C308        C  0.13853183  0.40454494  0.55995058     1.04400
Fe309      Fe  0.13174110  0.14200488  0.14688365     1.65800
Fe310      Fe  0.16972444  0.14995008  0.06103086     1.73200
Fe311      Fe  0.13571400  0.20270786  0.08961754     1.54400
O312        O  0.10206571  0.19399585  0.10718700    -0.80200
O313        O  0.18995168  0.18086253  0.08441382    -0.78500
O314        O  0.10002384  0.14820044  0.11811187    -0.82700
O315        O  0.12741338  0.17578178  0.19326673    -0.77600
O316        O  0.12795740  0.19502271  0.02101716    -0.79400
O317        O  0.18359121  0.12600381  0.11531984    -0.82100
C318        C  0.13539840  0.20045175  0.19401743     0.98700
C319        C  0.09070525  0.17157968  0.11040697     1.06100
O320        O  0.14527428  0.16457769  0.09851772    -1.11100
O321        O  0.15028036  0.11763047  0.03813811    -0.73500
O322        O  0.13463856  0.10530998  0.10626720    -0.77000
O323        O  0.14342790  0.21182799  0.15758456    -0.77700
C324        C  0.14037312  0.09990509  0.06382617     0.97600
O325        O  0.16298620  0.13621758  0.17806687    -0.75700
O326        O  0.16000688  0.17357349  0.00160590    -0.80800
C327        C  0.18744224  0.20547011  0.07066070     1.00200
C328        C  0.14307511  0.18904633  0.99107889     1.06100
O329        O  0.16792940  0.21674798  0.06880148    -0.76500
C330        C  0.18161957  0.12879543  0.15964063     1.04400
Fe331      Fe  0.87726149  0.13819550  0.13710810     1.65800
Fe332      Fe  0.84439445  0.14136777  0.04066021     1.73200
Fe333      Fe  0.87400422  0.19774957  0.07418906     1.54400
O334        O  0.86509674  0.20861290  0.14125052    -0.80200
O335        O  0.85600873  0.16335595  0.98121917    -0.78500
O336        O  0.87759980  0.17270212  0.18263948    -0.82700
O337        O  0.91013764  0.14641340  0.11676552    -0.77600
O338        O  0.84141451  0.20954290  0.05160761    -0.79400
O339        O  0.86705756  0.11026225  0.02628928    -0.82100
C340        C  0.91937114  0.16925570  0.10508938     0.98700
C341        C  0.87088803  0.19786442  0.18001652     1.06100
O342        O  0.86539204  0.15913637  0.08391639    -1.11100
O343        O  0.82800821  0.11836470  0.09348311    -0.73500
O344        O  0.84484155  0.12948688  0.16085621    -0.77000
O345        O  0.90766959  0.19059155  0.09412539    -0.77700
C346        C  0.82779318  0.12040593  0.13820520     0.97600
O347        O  0.87876068  0.10060511  0.09881649    -0.75700
O348        O  0.82091440  0.17090811  0.05322677    -0.80800
C349        C  0.87175962  0.18090501  0.97328186     1.00200
C350        C  0.82250755  0.19682074  0.04796305     1.06100
O351        O  0.88376250  0.19058316  0.00631501    -0.76500
C352        C  0.87634941  0.09403661  0.05554981     1.04400
C353        C  0.98174699  0.15048124  0.12098423     0.14100
C354        C  0.99277017  0.17363340  0.10183592     0.01100
C355        C  0.97968655  0.19571922  0.08441187     0.16100
C356        C  0.95591545  0.19448568  0.08553650     0.25500
C357        C  0.94469743  0.17105193  0.10432462    -0.40900
C358        C  0.95807213  0.14914820  0.12229594     0.32500
C359        C  0.01793238  0.17454063  0.10081233     0.01100
F360        F  0.98994801  0.21830689  0.06549535    -0.13200
F361        F  0.94836712  0.12638747  0.14181062    -0.13700
C362        C  0.03021782  0.15379015  0.07701400     0.16100
C363        C  0.05391158  0.15290885  0.07984119     0.25500
C364        C  0.06575343  0.17300545  0.10599574    -0.40800
C365        C  0.05352825  0.19438955  0.12830684     0.32400
C366        C  0.02980472  0.19505702  0.12595802     0.14100
F367        F  0.01919969  0.13434272  0.05103461    -0.13200
F368        F  0.06450574  0.21392316  0.15418919    -0.13700
F369        F  0.06532051  0.13266296  0.05643269    -0.16000
F370        F  0.01837929  0.21507571  0.14985630    -0.14500
F371        F  0.99401312  0.12923419  0.13936717    -0.14500
F372        F  0.94400083  0.21617745  0.06768432    -0.15900
C373        C  0.13754089  0.26234099  0.27646596     0.14100
C374        C  0.13602550  0.24973092  0.32053101     0.01100
C375        C  0.13366712  0.22075284  0.32345630     0.16100
C376        C  0.13323485  0.20449942  0.28249565     0.25500
C377        C  0.13508074  0.21711449  0.23801258    -0.40900
C378        C  0.13698683  0.24633203  0.23565444     0.32500
C379        C  0.13728863  0.26712644  0.36318288     0.01100
F380        F  0.13231692  0.20819789  0.36600501    -0.13200
F381        F  0.13805994  0.25967678  0.19375358    -0.13700
C382        C  0.11782383  0.27218715  0.39005824     0.16100
C383        C  0.11898395  0.28915040  0.42993227     0.25500
C384        C  0.13976175  0.30122104  0.44383206    -0.40800
C385        C  0.15913224  0.29660051  0.41585148     0.32400
C386        C  0.15784299  0.27974835  0.37586635     0.14100
F387        F  0.09767408  0.26070067  0.37756593    -0.13200
F388        F  0.17962356  0.30710972  0.42841610    -0.13700
F389        F  0.09979374  0.29343927  0.45526876    -0.16000
F390        F  0.17684939  0.27504333  0.35014523    -0.14500
F391        F  0.13941423  0.29036359  0.27300778    -0.14500
F392        F  0.13161626  0.17648569  0.28650493    -0.15900
C393        C  0.12108317  0.23174609  0.88859839     0.14100
C394        C  0.14134227  0.23947922  0.86613783     0.01100
C395        C  0.16199589  0.22870197  0.88315000     0.16100
C396        C  0.16239456  0.21066474  0.92166721     0.25500
C397        C  0.14216656  0.20342952  0.94491852    -0.40900
C398        C  0.12149429  0.21419065  0.92776888     0.32500
C399        C  0.14092819  0.25783578  0.82397994     0.01100
F400        F  0.18198269  0.23647674  0.86353436    -0.13200
F401        F  0.10159963  0.20806273  0.94935482    -0.13700
C402        C  0.12947541  0.28357812  0.82421509     0.16100
C403        C  0.12850539  0.30001323  0.78348083     0.25500
C404        C  0.13927529  0.29122022  0.74183810    -0.40800
C405        C  0.15135163  0.26582771  0.74249877     0.32400
C406        C  0.15184571  0.24929059  0.78263358     0.14100
F407        F  0.11929017  0.29291428  0.86397285    -0.13200
F408        F  0.16274281  0.25661540  0.70405489    -0.13700
F409        F  0.11660043  0.32414480  0.78465368    -0.16000
F410        F  0.16253605  0.22432968  0.78047306    -0.14500
F411        F  0.10078491  0.24105404  0.87245766    -0.14500
F412        F  0.18279348  0.20172832  0.93790126    -0.15900
C413        C  0.85054880  0.28212555  0.35998683     0.14100
C414        C  0.87072958  0.26931131  0.34527688     0.01100
C415        C  0.89072752  0.27407143  0.37081739     0.16100
C416        C  0.89040989  0.29056699  0.41148121     0.25500
C417        C  0.86997020  0.30257631  0.42764814    -0.40900
C418        C  0.85010919  0.29852045  0.40072668     0.32500
C419        C  0.87080944  0.25088671  0.30336824     0.01100
F420        F  0.91057197  0.26250932  0.35651887    -0.13200
F421        F  0.82989174  0.30897824  0.41518559    -0.13700
C422        C  0.86755205  0.26210721  0.25852643     0.16100
C423        C  0.86736017  0.24493157  0.21881929     0.25500
C424        C  0.87033823  0.21585033  0.22298110    -0.40800
C425        C  0.87351557  0.20467757  0.26832860     0.32400
C426        C  0.87378293  0.22205946  0.30802113     0.14100
F427        F  0.86494279  0.28993349  0.25309861    -0.13200
F428        F  0.87620741  0.17692965  0.27451566    -0.13700
F429        F  0.86467419  0.25709744  0.17619687    -0.16000
F430        F  0.87661686  0.21068907  0.35121673    -0.14500
F431        F  0.83098975  0.27775182  0.33588605    -0.14500
F432        F  0.91007326  0.29424799  0.43555433    -0.15900
C433        C  0.88269139  0.23451872  0.75670784     0.14100
C434        C  0.87718165  0.24455273  0.80147997     0.01100
C435        C  0.87191038  0.27287909  0.80705244     0.16100
C436        C  0.87181832  0.29084432  0.76819970     0.25500
C437        C  0.87701207  0.28073837  0.72301111    -0.40900
C438        C  0.88265893  0.25234415  0.71793135     0.32500
C439        C  0.87710623  0.22552525  0.84248276     0.01100
F440        F  0.86643931  0.28300201  0.85010953    -0.13200
F441        F  0.88858037  0.24180391  0.67539057    -0.13700
C442        C  0.89472820  0.22657493  0.87547337     0.16100
C443        C  0.89394365  0.21023047  0.91607354     0.25500
C444        C  0.87517451  0.19274052  0.92517232    -0.40800
C445        C  0.85817653  0.19053402  0.89034792     0.32400
C446        C  0.85923152  0.20670146  0.84936264     0.14100
F447        F  0.91254817  0.24395484  0.86878428    -0.13200
F448        F  0.83984722  0.17397262  0.89693912    -0.13700
F449        F  0.91130273  0.21236252  0.94724612    -0.16000
F450        F  0.84223238  0.20492981  0.81730164    -0.14500
F451        F  0.88838717  0.20742506  0.75063643    -0.14500
F452        F  0.86596410  0.31785422  0.77460175    -0.15900
C453        C  0.98126083  0.35941613  0.60861349     0.14100
C454        C  0.99351221  0.33519140  0.59798932     0.01100
C455        C  0.98166447  0.31076950  0.58696502     0.16100
C456        C  0.95798005  0.31028919  0.58774267     0.25500
C457        C  0.94550317  0.33442588  0.59922072    -0.40900
C458        C  0.95753673  0.35910866  0.60919391     0.32500
C459        C  0.01861357  0.33498752  0.60063458     0.01100
F460        F  0.99309448  0.28722611  0.57546981    -0.13200
F461        F  0.94648162  0.38299170  0.62022186    -0.13700
C462        C  0.02971559  0.31635331  0.63092953     0.16100
C463        C  0.05336099  0.31619300  0.63413381     0.25500
C464        C  0.06626836  0.33506805  0.60793612    -0.40800
C465        C  0.05525857  0.35378551  0.57770706     0.32400
C466        C  0.03159078  0.35355979  0.57371107     0.14100
F467        F  0.01759178  0.29879459  0.65840430    -0.13200
F468        F  0.06747857  0.37178517  0.55122855    -0.13700
F469        F  0.06364862  0.29825622  0.66410055    -0.16000
F470        F  0.02135736  0.37114367  0.54305710    -0.14500
F471        F  0.99229777  0.38323575  0.61999845    -0.14500
F472        F  0.94740788  0.28591752  0.57795765    -0.15900
C473        C  0.76551984  0.11874499  0.17417224     0.14100
C474        C  0.76639591  0.10795362  0.22023997     0.01100
C475        C  0.78763334  0.09855417  0.23701150     0.16100
C476        C  0.80748664  0.10176832  0.21003766     0.25500
C477        C  0.80659797  0.11334635  0.16466773    -0.40900
C478        C  0.78521417  0.12088831  0.14657198     0.32500
C479        C  0.74560704  0.10821514  0.25138073     0.01100
F480        F  0.78926042  0.08628184  0.27975402    -0.13200
F481        F  0.78350311  0.13218220  0.10307589    -0.13700
C482        C  0.72422649  0.09932694  0.23463676     0.16100
C483        C  0.70449548  0.10259014  0.26202237     0.25500
C484        C  0.70560802  0.11373590  0.30777765    -0.40800
C485        C  0.72709842  0.12126503  0.32547670     0.32400
C486        C  0.74668600  0.11897715  0.29752380     0.14100
F487        F  0.72233726  0.08739431  0.19158273    -0.13200
F488        F  0.72904458  0.13259777  0.36899969    -0.13700
F489        F  0.68421996  0.09480421  0.24363313    -0.16000
F490        F  0.76655371  0.12882244  0.31497087    -0.14500
F491        F  0.74578983  0.12886029  0.15652549    -0.14500
F492        F  0.82765471  0.09355948  0.22843216    -0.15900
C493        C  0.76488231  0.26891538  0.54560269     0.14100
C494        C  0.76725327  0.24968815  0.50887167     0.01100
C495        C  0.78901932  0.24246854  0.49287003     0.16100
C496        C  0.80812793  0.25527094  0.51186305     0.25500
C497        C  0.80568542  0.27583591  0.54661342    -0.40900
C498        C  0.78395791  0.28200997  0.56424310     0.32500
C499        C  0.74710767  0.23671536  0.48765212     0.01100
F500        F  0.79169609  0.22396292  0.45723103    -0.13200
F501        F  0.78115241  0.30129109  0.59864225    -0.13700
C502        C  0.72982669  0.25290924  0.46730979     0.16100
C503        C  0.71078475  0.24015467  0.44728392     0.25500
C504        C  0.70902922  0.21103472  0.44682899    -0.40800
C505        C  0.72656952  0.19505143  0.46730730     0.32400
C506        C  0.74524595  0.20779683  0.48761691     0.14100
F507        F  0.73155072  0.28101384  0.46639178    -0.13200
F508        F  0.72540124  0.16691310  0.46957062    -0.13700
F509        F  0.69425950  0.25622142  0.42819798    -0.16000
F510        F  0.76132766  0.19179296  0.50849661    -0.14500
F511        F  0.74406994  0.27519410  0.56304766    -0.14500
F512        F  0.82880890  0.24905724  0.49366053    -0.15900
C513        C  0.48075323  0.16249569  0.34141651     0.14100
C514        C  0.49380052  0.17406415  0.37790320     0.01100
C515        C  0.48265733  0.18590366  0.41679038     0.16100
C516        C  0.45891158  0.18577134  0.41942507     0.25500
C517        C  0.44592841  0.17340745  0.38357360    -0.40900
C518        C  0.45707099  0.16193494  0.34441929     0.32500
C519        C  0.51897882  0.17273457  0.37605803     0.01100
F520        F  0.49479415  0.19682054  0.45291362    -0.13200
F521        F  0.44497137  0.15080433  0.30841693    -0.13700
C522        C  0.53215736  0.19697818  0.37861503     0.16100
C523        C  0.55589206  0.19547392  0.37688792     0.25500
C524        C  0.56702404  0.16957636  0.37242573    -0.40800
C525        C  0.55362517  0.14533330  0.36999308     0.32400
C526        C  0.52995074  0.14695062  0.37183132     0.14100
F527        F  0.52201547  0.22223590  0.38190037    -0.13200
F528        F  0.56333566  0.11983403  0.36668210    -0.13700
F529        F  0.56786349  0.21951337  0.37905184    -0.16000
F530        F  0.51767725  0.12312041  0.37046217    -0.14500
F531        F  0.49098825  0.15199904  0.30253069    -0.14500
F532        F  0.44863016  0.19683933  0.45779896    -0.15900
C533        C  0.22359511  0.13793059  0.26028315     0.14100
C534        C  0.24243326  0.12260581  0.24452859     0.01100
C535        C  0.24057310  0.10764468  0.20217592     0.16100
C536        C  0.22059656  0.10873416  0.17533060     0.25500
C537        C  0.20186568  0.12461499  0.19046965    -0.40900
C538        C  0.20354984  0.13885131  0.23377802     0.32500
C539        C  0.26430486  0.12340680  0.27103155     0.01100
F540        F  0.25823265  0.09204701  0.18660708    -0.13200
F541        F  0.18626101  0.15506835  0.24939958    -0.13700
C542        C  0.26529430  0.11583857  0.31866529     0.16100
C543        C  0.28565552  0.11797662  0.34403791     0.25500
C544        C  0.30566999  0.12773831  0.32233185    -0.40800
C545        C  0.30460666  0.13489237  0.27424241     0.32400
C546        C  0.28421391  0.13280064  0.24910756     0.14100
F547        F  0.24644774  0.10638061  0.34080016    -0.13200
F548        F  0.32309453  0.14492234  0.25153763    -0.13700
F549        F  0.28554756  0.11086688  0.39014534    -0.16000
F550        F  0.28372221  0.14111686  0.20358140    -0.14500
F551        F  0.22496627  0.15322581  0.30031140    -0.14500
F552        F  0.21969779  0.09437565  0.13429581    -0.15900
C553        C  0.22702527  0.24543060  0.52291557     0.14100
C554        C  0.24819755  0.25682403  0.53496395     0.01100
C555        C  0.24925778  0.27917919  0.56640934     0.16100
C556        C  0.22934204  0.29128636  0.58309927     0.25500
C557        C  0.20803186  0.28135960  0.56808157    -0.40900
C558        C  0.20704361  0.25755606  0.53946830     0.32500
C559        C  0.26911401  0.24543457  0.51428746     0.01100
F560        F  0.26959928  0.28962702  0.58013840    -0.13200
F561        F  0.18683687  0.24731435  0.52448405    -0.13700
C562        C  0.28311227  0.26188451  0.48548656     0.16100
C563        C  0.30222051  0.25024110  0.46373054     0.25500
C564        C  0.30717758  0.22202506  0.47017833    -0.40800
C565        C  0.29354338  0.20601728  0.50040165     0.32400
C566        C  0.27472757  0.21762836  0.52221007     0.14100
F567        F  0.27780082  0.28887199  0.47722391    -0.13200
F568        F  0.29862209  0.17901021  0.50932944    -0.13700
F569        F  0.31524314  0.26609576  0.43510543    -0.16000
F570        F  0.26192373  0.20168907  0.55117930    -0.14500
F571        F  0.22568510  0.22352740  0.49291954    -0.14500
F572        F  0.23090058  0.31343403  0.61255449    -0.15900
C573        C  0.37342169  0.24131233  0.73258286     0.14100
C574        C  0.37333153  0.25324193  0.68784445     0.01100
C575        C  0.37314033  0.28231761  0.68354640     0.16100
C576        C  0.37311556  0.29926506  0.72373362     0.25500
C577        C  0.37344647  0.28732991  0.76893046    -0.40900
C578        C  0.37354476  0.25803324  0.77265105     0.32500
C579        C  0.37355230  0.23504807  0.64592798     0.01100
F580        F  0.37260230  0.29425455  0.64040707    -0.13200
F581        F  0.37418452  0.24528642  0.81512051    -0.13700
C582        C  0.35481302  0.21816732  0.63560133     0.16100
C583        C  0.35492150  0.20094122  0.59596236     0.25500
C584        C  0.37386899  0.20030380  0.56565102    -0.40800
C585        C  0.39310316  0.21632261  0.57772293     0.32400
C586        C  0.39282686  0.23363524  0.61726199     0.14100
F587        F  0.33603262  0.21913279  0.66311941    -0.13200
F588        F  0.41204206  0.21590451  0.55063748    -0.13700
F589        F  0.33597783  0.18598223  0.58626019    -0.16000
F590        F  0.41139070  0.24917868  0.62751746    -0.14500
F591        F  0.37381858  0.21326885  0.73744155    -0.14500
F592        F  0.37234806  0.32724897  0.71830795    -0.15900
C593        C  0.36378789  0.26851452  0.23493979     0.14100
C594        C  0.37208738  0.25883740  0.19171819     0.01100
C595        C  0.38078886  0.23168520  0.18891147     0.16100
C596        C  0.38125812  0.21453377  0.22859200     0.25500
C597        C  0.37286654  0.22410004  0.27212631    -0.40900
C598        C  0.36410452  0.25142981  0.27461754     0.32500
C599        C  0.37130618  0.27684550  0.14937781     0.01100
F600        F  0.38852898  0.22154833  0.14737784    -0.13200
F601        F  0.35576272  0.26186982  0.31544447    -0.13700
C602        C  0.39116502  0.28264581  0.12398636     0.16100
C603        C  0.39018352  0.29795340  0.08224608     0.25500
C604        C  0.36927586  0.30799876  0.06509210    -0.40800
C605        C  0.34952476  0.30311415  0.09179367     0.32400
C606        C  0.35055099  0.28764012  0.13332024     0.14100
F607        F  0.41155190  0.27318863  0.13940356    -0.13200
F608        F  0.32889545  0.31170559  0.07630586    -0.13700
F609        F  0.40969334  0.30241312  0.05814362    -0.16000
F610        F  0.33101186  0.28195828  0.15658822    -0.14500
F611        F  0.35564903  0.29479995  0.23896939    -0.14500
F612        F  0.39016895  0.18865482  0.22422231    -0.15900
C613        C  0.28712982  0.25020337  0.00571859     0.14100
C614        C  0.26556523  0.25655799  0.98771975     0.01100
C615        C  0.26348614  0.27394642  0.94858403     0.16100
C616        C  0.28274142  0.28588355  0.92882988     0.25500
C617        C  0.30430521  0.28052497  0.94804907    -0.40900
C618        C  0.30642196  0.26201883  0.98591149     0.32500
C619        C  0.24534157  0.24417422  0.00900333     0.01100
F620        F  0.24279589  0.27951710  0.92983622    -0.13200
F621        F  0.32690892  0.25702341  0.00607171    -0.13700
C622        C  0.22835560  0.26082145  0.02932757     0.16100
C623        C  0.20938868  0.24848448  0.05012356     0.25500
C624        C  0.20749798  0.21942037  0.05122921    -0.40800
C625        C  0.22449220  0.20299344  0.02997021     0.32400
C626        C  0.24315397  0.21530350  0.00906796     0.14100
F627        F  0.23032580  0.28890583  0.02951043    -0.13200
F628        F  0.22266104  0.17490588  0.02747573    -0.13700
F629        F  0.19310152  0.26482359  0.06947399    -0.16000
F630        F  0.25892879  0.19900564  0.98778411    -0.14500
F631        F  0.28937303  0.23348417  0.04380342    -0.14500
F632        F  0.28028214  0.30335685  0.89179027    -0.15900
C633        C  0.26836872  0.40404682  0.80461930     0.14100
C634        C  0.26611670  0.39022019  0.76119651     0.01100
C635        C  0.28423019  0.37369951  0.74519004     0.16100
C636        C  0.30385484  0.37051117  0.77232875     0.25500
C637        C  0.30576020  0.38333882  0.81676316    -0.40900
C638        C  0.28784520  0.40039761  0.83235447     0.32500
C639        C  0.24438289  0.39111134  0.73424155     0.01100
F640        F  0.28248242  0.35931494  0.70427344    -0.13200
F641        F  0.28910460  0.41351435  0.87452476    -0.13700
C642        C  0.24413843  0.39710225  0.68587220     0.16100
C643        C  0.22411925  0.39443725  0.65955504     0.25500
C644        C  0.20367949  0.38607291  0.68114870    -0.40800
C645        C  0.20380348  0.38156346  0.73017980     0.32400
C646        C  0.22388922  0.38380492  0.75615225     0.14100
F647        F  0.26344960  0.40509574  0.66378157    -0.13200
F648        F  0.18470956  0.37363437  0.75312224    -0.13700
F649        F  0.22503379  0.39930845  0.61265129    -0.16000
F650        F  0.22349043  0.37719517  0.80247467    -0.14500
F651        F  0.25158552  0.42096752  0.82041341    -0.14500
F652        F  0.32046545  0.35347461  0.75605103    -0.15900
C653        C  0.72099030  0.24639497  0.99648165     0.14100
C654        C  0.74262708  0.25190027  0.97814310     0.01100
C655        C  0.74483391  0.26877651  0.93834276     0.16100
C656        C  0.72567208  0.28078205  0.91802020     0.25500
C657        C  0.70402732  0.27586260  0.93706967    -0.40900
C658        C  0.70179423  0.25815584  0.97594593     0.32500
C659        C  0.76270759  0.23849783  0.99876281     0.01100
F660        F  0.76553699  0.27354704  0.91914510    -0.13200
F661        F  0.68124888  0.25380273  0.99614746    -0.13700
C662        C  0.76380289  0.20953239  0.99948876     0.16100
C663        C  0.78286177  0.19621381  0.01703333     0.25500
C664        C  0.80155909  0.21167228  0.03408398    -0.40800
C665        C  0.80026448  0.24087052  0.03406363     0.32400
C666        C  0.78090989  0.25419028  0.01650923     0.14100
F667        F  0.74665341  0.19401479  0.98135744    -0.13200
F668        F  0.81766553  0.25650755  0.05068703    -0.13700
F669        F  0.78317797  0.16803003  0.01517131    -0.16000
F670        F  0.77990747  0.28235518  0.01678048    -0.14500
F671        F  0.71856455  0.23032562  0.03528439    -0.14500
F672        F  0.72828433  0.29769694  0.88030313    -0.15900
C673        C  0.74094584  0.39815910  0.79637539     0.14100
C674        C  0.74398402  0.38574807  0.75209468     0.01100
C675        C  0.72620567  0.37008333  0.73265619     0.16100
C676        C  0.70607608  0.36599797  0.75758821     0.25500
C677        C  0.70325803  0.37740290  0.80289143    -0.40900
C678        C  0.72078113  0.39409257  0.82153085     0.32500
C679        C  0.76617896  0.38688782  0.72749450     0.01100
F680        F  0.72882802  0.35736107  0.69039785    -0.13200
F681        F  0.71855437  0.40629205  0.86432117    -0.13700
C682        C  0.78550824  0.37513746  0.74836584     0.16100
C683        C  0.80553250  0.37179181  0.72258211     0.25500
C684        C  0.80668455  0.38008930  0.67504191    -0.40800
C685        C  0.78761980  0.39342033  0.65519632     0.32400
C686        C  0.76762938  0.39677899  0.68121388     0.14100
F687        F  0.78457842  0.36522777  0.79293957    -0.13200
F688        F  0.78802980  0.40265809  0.61020359    -0.13700
F689        F  0.82333224  0.35896265  0.74370045    -0.16000
F690        F  0.74939930  0.40906990  0.66076707    -0.14500
F691        F  0.75764751  0.41393961  0.81553222    -0.14500
F692        F  0.68986460  0.34957990  0.73814563    -0.15900
C693        C  0.65442172  0.20776454  0.62322571     0.14100
C694        C  0.63460098  0.22266830  0.63433688     0.01100
C695        C  0.61567172  0.22015777  0.60462893     0.16100
C696        C  0.61691660  0.20434250  0.56325296     0.25500
C697        C  0.63722616  0.19067085  0.55047699    -0.40900
C698        C  0.65573517  0.19192107  0.58187534     0.32500
C699        C  0.63393521  0.24138276  0.67614360     0.01100
F700        F  0.59600120  0.23339105  0.61541471    -0.13200
F701        F  0.67571466  0.17939620  0.57117589    -0.13700
C702        C  0.63001270  0.27005883  0.67099843     0.16100
C703        C  0.62998175  0.28780273  0.71025865     0.25500
C704        C  0.63390088  0.27728230  0.75577833    -0.40800
C705        C  0.63765538  0.24833909  0.76057825     0.32400
C706        C  0.63767848  0.23076596  0.72130800     0.14100
F707        F  0.62672380  0.28102699  0.62764645    -0.13200
F708        F  0.64122161  0.23671119  0.80335133    -0.13700
F709        F  0.62630210  0.31532563  0.70338591    -0.16000
F710        F  0.64108088  0.20312495  0.72755948    -0.14500
F711        F  0.67301593  0.20978653  0.65118456    -0.14500
F712        F  0.59835217  0.20304803  0.53507739    -0.15900
C713        C  0.64368933  0.21943995  0.16758855     0.14100
C714        C  0.64145079  0.24843745  0.17203853     0.01100
C715        C  0.63907136  0.26005012  0.21694038     0.16100
C716        C  0.63894477  0.24313608  0.25679447     0.25500
C717        C  0.64125558  0.21402764  0.25276428    -0.40900
C718        C  0.64356518  0.20236595  0.20754333     0.32500
C719        C  0.64074584  0.26665045  0.12997935     0.01100
F720        F  0.63612287  0.28785410  0.22209411    -0.13200
F721        F  0.64600487  0.17451757  0.20194495    -0.13700
C722        C  0.62300468  0.26411636  0.09746882     0.16100
C723        C  0.62211464  0.28119956  0.05782542     0.25500
C724        C  0.63929029  0.30106945  0.04913433    -0.40800
C725        C  0.65667507  0.30417249  0.08289306     0.32400
C726        C  0.65731904  0.28718651  0.12289312     0.14100
F727        F  0.60644493  0.24494910  0.10410735    -0.13200
F728        F  0.67347385  0.32306358  0.07674067    -0.13700
F729        F  0.60468677  0.27746820  0.02725083    -0.16000
F730        F  0.67458949  0.29018033  0.15406270    -0.14500
F731        F  0.64620948  0.20769062  0.12451113    -0.14500
F732        F  0.63572000  0.25532938  0.29930845    -0.15900
C733        C  0.47978070  0.36148081  0.90288484     0.14100
C734        C  0.49175815  0.33765728  0.88870508     0.01100
C735        C  0.47964679  0.31387755  0.87494125     0.16100
C736        C  0.45595824  0.31371105  0.87608716     0.25500
C737        C  0.44390794  0.33748095  0.89053111    -0.40900
C738        C  0.45605279  0.36146578  0.90351386     0.32500
C739        C  0.51686695  0.33748790  0.88774766     0.01100
F740        F  0.49080213  0.29099782  0.85920767    -0.13200
F741        F  0.44497282  0.38473303  0.91775905    -0.13700
C742        C  0.52902507  0.31758644  0.91353395     0.16100
C743        C  0.55266262  0.31620151  0.91046997     0.25500
C744        C  0.56466165  0.33479855  0.88148893    -0.40800
C745        C  0.55240426  0.35534254  0.85689326     0.32400
C746        C  0.52875859  0.35657781  0.85991564     0.14100
F747        F  0.51795098  0.29955716  0.94203469    -0.13200
F748        F  0.56316870  0.37383905  0.82875725    -0.13700
F749        F  0.56375821  0.29686708  0.93647001    -0.16000
F750        F  0.51740526  0.37589919  0.83436962    -0.14500
F751        F  0.49108014  0.38462082  0.91687505    -0.14500
F752        F  0.44480770  0.29060006  0.86142148    -0.15900
C753        C  0.11494398  0.47774294  0.54290232     0.14100
C754        C  0.12567487  0.48591873  0.50099261     0.01100
C755        C  0.13899413  0.46639098  0.47676504     0.16100
C756        C  0.14231687  0.43971912  0.49485446     0.25500
C757        C  0.13267827  0.43189405  0.53830874    -0.40900
C758        C  0.11848007  0.45110984  0.56149598     0.32500
C759        C  0.12512399  0.51537536  0.48491490     0.01100
F760        F  0.15000490  0.47363082  0.43675978    -0.13200
F761        F  0.10819450  0.44435137  0.60253234    -0.13700
C762        C  0.13229145  0.53660442  0.51535922     0.16100
C763        C  0.13514268  0.56372011  0.49902726     0.25500
C764        C  0.13142557  0.57035320  0.45122461    -0.40800
C765        C  0.12291883  0.54935738  0.42138718     0.32400
C766        C  0.11971936  0.52223054  0.43815684     0.14100
F767        F  0.13794402  0.53081168  0.56054228    -0.13200
F768        F  0.11840718  0.55468673  0.37553105    -0.13700
F769        F  0.14240350  0.58319174  0.53015443    -0.16000
F770        F  0.11184452  0.50243617  0.40830919    -0.14500
F771        F  0.10130274  0.49576534  0.56634932    -0.14500
F772        F  0.15596591  0.42209443  0.47055380    -0.15900
C773        C  0.86992113  0.51665487  0.43146312     0.14100
C774        C  0.88109560  0.51193002  0.47457142     0.01100
C775        C  0.89189048  0.53451446  0.49683204     0.16100
C776        C  0.89040749  0.56134008  0.47789190     0.25500
C777        C  0.87883975  0.56602614  0.43540530    -0.40900
C778        C  0.86911902  0.54331912  0.41179955     0.32500
C779        C  0.88043263  0.48388054  0.49717072     0.01100
F780        F  0.90369380  0.53067968  0.53726967    -0.13200
F781        F  0.85732448  0.54730556  0.37138330    -0.13700
C782        C  0.88596009  0.45982276  0.47137572     0.16100
C783        C  0.88319956  0.43339178  0.49108375     0.25500
C784        C  0.87552643  0.43032049  0.53760885    -0.40800
C785        C  0.87094722  0.45433120  0.56417955     0.32400
C786        C  0.87309724  0.48078827  0.54403702     0.14100
F787        F  0.89395314  0.46186306  0.42681842    -0.13200
F788        F  0.86295882  0.45216779  0.60872500    -0.13700
F789        F  0.88795399  0.41069228  0.46446722    -0.16000
F790        F  0.86681879  0.50331013  0.56968457    -0.14500
F791        F  0.85855976  0.49578313  0.40963754    -0.14500
F792        F  0.90004079  0.58287577  0.50139860    -0.15900
C793        C  0.98131485  0.69429538  0.37230535     0.14100
C794        C  0.99372673  0.66955746  0.37723591     0.01100
C795        C  0.98201325  0.64432141  0.38144268     0.16100
C796        C  0.95828112  0.64379252  0.38108061     0.25500
C797        C  0.94568268  0.66858718  0.37644160    -0.40900
C798        C  0.95754793  0.69386351  0.37192983     0.32500
C799        C  0.01888858  0.67002299  0.37817652     0.01100
F800        F  0.99360622  0.62014985  0.38677485    -0.13200
F801        F  0.94621574  0.71814033  0.36581059    -0.13700
C802        C  0.03049654  0.68464918  0.41356878     0.16100
C803        C  0.05425038  0.68481299  0.41482318     0.25500
C804        C  0.06682701  0.67018563  0.38079212    -0.40800
C805        C  0.05513322  0.65551938  0.34541234     0.32400
C806        C  0.03141414  0.65552160  0.34406730     0.14100
F807        F  0.01877690  0.69820446  0.44765120    -0.13200
F808        F  0.06667212  0.64169710  0.31134612    -0.13700
F809        F  0.06491880  0.69853764  0.45019994    -0.16000
F810        F  0.02064687  0.64171089  0.30891642    -0.14500
F811        F  0.99226851  0.71885385  0.36674554    -0.14500
F812        F  0.94768540  0.61896287  0.38618177    -0.15900
C813        C  0.90245036  0.96796726  0.96464483     0.14100
C814        C  0.88365787  0.98403525  0.97853627     0.01100
C815        C  0.86170732  0.97355340  0.97152190     0.16100
C816        C  0.85853206  0.94722048  0.95195686     0.25500
C817        C  0.87723343  0.93093197  0.93856469    -0.40900
C818        C  0.89924864  0.94149979  0.94470231     0.32500
C819        C  0.88643234  0.01180530  0.00038081     0.01100
F820        F  0.84330053  0.98893941  0.98366252    -0.13200
F821        F  0.91754804  0.92578941  0.93318844    -0.13700
C822        C  0.89108402  0.03503443  0.97238807     0.16100
C823        C  0.88932888  0.06187944  0.99118692     0.25500
C824        C  0.88301734  0.06595459  0.03853373    -0.40800
C825        C  0.88001483  0.04249735  0.06729888     0.32400
C826        C  0.88148734  0.01568472  0.04821964     0.14100
F827        F  0.89589425  0.03176447  0.92607743    -0.13200
F828        F  0.87385413  0.04547140  0.11295593    -0.13700
F829        F  0.89296852  0.08394186  0.96255899    -0.16000
F830        F  0.87690960  0.99346606  0.07588040    -0.14500
F831        F  0.92381240  0.97762451  0.97152706    -0.14500
F832        F  0.83709175  0.93752828  0.94598377    -0.15900
C833        C  0.86274172  0.73735908  0.71591231     0.14100
C834        C  0.87426412  0.74522613  0.67499682     0.01100
C835        C  0.88578377  0.77079297  0.67432528     0.16100
C836        C  0.88559301  0.78829079  0.71385504     0.25500
C837        C  0.87388227  0.78051040  0.75499497    -0.40900
C838        C  0.86250282  0.75468140  0.75534158     0.32500
C839        C  0.87339697  0.72708361  0.63270579     0.01100
F840        F  0.89688536  0.77907686  0.63503456    -0.13200
F841        F  0.85090657  0.74602155  0.79378392    -0.13700
C842        C  0.85236121  0.72031256  0.61242860     0.16100
C843        C  0.85125137  0.70357936  0.57227160     0.25500
C844        C  0.87120816  0.69355428  0.55104421    -0.40800
C845        C  0.89226678  0.69989449  0.57182600     0.32400
C846        C  0.89333908  0.71637429  0.61248694     0.14100
F847        F  0.83287992  0.73103711  0.63031161    -0.13200
F848        F  0.91181516  0.69039951  0.55238363    -0.13700
F849        F  0.83069956  0.69891445  0.55218016    -0.16000
F850        F  0.91384740  0.72197528  0.63202734    -0.14500
F851        F  0.85180343  0.71258835  0.71785055    -0.14500
F852        F  0.89715094  0.81262753  0.71190366    -0.15900
C853        C  0.89041643  0.77190365  0.10492242     0.14100
C854        C  0.87117762  0.77085263  0.13386123     0.01100
C855        C  0.85231402  0.78744767  0.12252872     0.16100
C856        C  0.85227437  0.80375670  0.08176410     0.25500
C857        C  0.87111314  0.80368613  0.05118280    -0.40900
C858        C  0.89045213  0.78812643  0.06420121     0.32500
C859        C  0.87087220  0.75237175  0.17568820     0.01100
F860        F  0.83344041  0.78684087  0.14978513    -0.13200
F861        F  0.90931239  0.78789820  0.03687257    -0.13700
C862        C  0.86729265  0.76347730  0.22063877     0.16100
C863        C  0.86776270  0.74636930  0.26027159     0.25500
C864        C  0.87197144  0.71751945  0.25603829    -0.40800
C865        C  0.87512394  0.70636997  0.21063914     0.32400
C866        C  0.87455476  0.72361646  0.17099111     0.14100
F867        F  0.86395385  0.79117914  0.22638809    -0.13200
F868        F  0.87861081  0.67874553  0.20432853    -0.13700
F869        F  0.86448141  0.75840848  0.30289533    -0.16000
F870        F  0.87735991  0.71214229  0.12778200    -0.14500
F871        F  0.90920400  0.75692351  0.11590351    -0.14500
F872        F  0.83325020  0.81835220  0.07110319    -0.15900
C873        C  0.12903069  0.96653567  0.01698626     0.14100
C874        C  0.12785151  0.98925774  0.98630728     0.01100
C875        C  0.12660492  0.98423189  0.93763793     0.16100
C876        C  0.12792063  0.95706949  0.91985474     0.25500
C877        C  0.13052996  0.93433346  0.95050218    -0.40900
C878        C  0.13015214  0.93942818  0.99941588     0.32500
C879        C  0.13005375  0.01803968  0.00493537     0.01100
F880        F  0.12484760  0.00577922  0.90717824    -0.13200
F881        F  0.13169743  0.91821187  0.03060162    -0.13700
C882        C  0.14811091  0.03482047  0.98998225     0.16100
C883        C  0.15121616  0.06135107  0.00887468     0.25500
C884        C  0.13641225  0.07178631  0.04363818    -0.40800
C885        C  0.11839254  0.05490281  0.05889475     0.32400
C886        C  0.11518966  0.02833157  0.03954518     0.14100
F887        F  0.16336725  0.02507094  0.95824863    -0.13200
F888        F  0.10368514  0.06422482  0.09201983    -0.13700
F889        F  0.16936318  0.07638692  0.99430781    -0.16000
F890        F  0.09747555  0.01268117  0.05441886    -0.14500
F891        F  0.13054749  0.97063307  0.06408622    -0.14500
F892        F  0.12792191  0.95329210  0.87259842    -0.15900
C893        C  0.14238048  0.73646888  0.73374212     0.14100
C894        C  0.13940589  0.74718296  0.68843763     0.01100
C895        C  0.13669107  0.77601655  0.68280828     0.16100
C896        C  0.13658802  0.79381846  0.72194131     0.25500
C897        C  0.13921187  0.78311067  0.76770430    -0.40900
C898        C  0.14221882  0.75408912  0.77287765     0.32500
C899        C  0.13889627  0.72829408  0.64705992     0.01100
F900        F  0.13444846  0.78698318  0.63916158    -0.13200
F901        F  0.14449001  0.74240006  0.81598189    -0.13700
C902        C  0.11944527  0.72671977  0.61869157     0.16100
C903        C  0.11942973  0.71066252  0.57760003     0.25500
C904        C  0.13899303  0.69586792  0.56376236    -0.40800
C905        C  0.15802290  0.69613324  0.59403254     0.32400
C906        C  0.15793079  0.71218138  0.63517724     0.14100
F907        F  0.10048413  0.74111963  0.63054116    -0.13200
F908        F  0.17732100  0.68227661  0.58260234    -0.13700
F909        F  0.10040834  0.71028412  0.55070641    -0.16000
F910        F  0.17691266  0.71309775  0.66219088    -0.14500
F911        F  0.14487939  0.70870963  0.74027160    -0.14500
F912        F  0.13412473  0.82151655  0.71480667    -0.15900
C913        C  0.12201205  0.77533797  0.11617171     0.14100
C914        C  0.14178005  0.77327724  0.14344222     0.01100
C915        C  0.16080934  0.78915205  0.13093064     0.16100
C916        C  0.16044976  0.80581836  0.09054875     0.25500
C917        C  0.14091241  0.80708591  0.06182920    -0.40900
C918        C  0.12149617  0.79212437  0.07602236     0.32500
C919        C  0.14237970  0.75478222  0.18521585     0.01100
F920        F  0.18011621  0.78760592  0.15682510    -0.13200
F921        F  0.10206008  0.79316306  0.05046784    -0.13700
C922        C  0.14092815  0.72577673  0.18023947     0.16100
C923        C  0.14060854  0.70846878  0.21993040     0.25500
C924        C  0.14156981  0.71987266  0.26566022    -0.40800
C925        C  0.14341918  0.74909215  0.27009962     0.32400
C926        C  0.14387893  0.76619195  0.23040445     0.14100
F927        F  0.13998123  0.71418990  0.13676621    -0.13200
F928        F  0.14429102  0.76147370  0.31294240    -0.13700
F929        F  0.13939501  0.68058226  0.21336445    -0.16000
F930        F  0.14515150  0.79414154  0.23617736    -0.14500
F931        F  0.10316578  0.76088193  0.12835442    -0.14500
F932        F  0.17970501  0.81943890  0.07833978    -0.15900
C933        C  0.03117482  0.80485704  0.87272682     0.14100
C934        C  0.01833430  0.82806295  0.88641187     0.01100
C935        C  0.02950905  0.85225232  0.90140735     0.16100
C936        C  0.05320636  0.85342781  0.90190255     0.25500
C937        C  0.06615822  0.83031332  0.88764470    -0.40900
C938        C  0.05489695  0.80593345  0.87339412     0.32500
C939        C  0.99329561  0.82754260  0.88324768     0.01100
F940        F  0.01740098  0.87472612  0.91573009    -0.13200
F941        F  0.06683270  0.78355144  0.85812488    -0.13700
C942        C  0.98052090  0.80945779  0.91135600     0.16100
C943        C  0.95678898  0.80961013  0.90888911     0.25500
C944        C  0.94545973  0.82794384  0.87822482    -0.40800
C945        C  0.95842932  0.84559189  0.84941572     0.32400
C946        C  0.98208558  0.84539081  0.85200054     0.14100
F947        F  0.99103994  0.79214224  0.94202170    -0.13200
F948        F  0.94825268  0.86268209  0.81790108    -0.13700
F949        F  0.94493551  0.79239230  0.93747362    -0.16000
F950        F  0.99413680  0.86240368  0.82342187    -0.14500
F951        F  0.02070926  0.78149316  0.85711164    -0.14500
F952        F  0.06347747  0.87707266  0.91689813    -0.15900
C953        C  0.36951314  0.53868713  0.98545332     0.14100
C954        C  0.37892982  0.51789869  0.01384154     0.01100
C955        C  0.38695885  0.52495882  0.05877916     0.16100
C956        C  0.38522103  0.55231330  0.07548475     0.25500
C957        C  0.37518331  0.57320805  0.04754118    -0.40900
C958        C  0.36768895  0.56595495  0.00190623     0.32500
C959        C  0.37857052  0.48860350  0.99756266     0.01100
F960        F  0.39620212  0.50519476  0.08686193    -0.13200
F961        F  0.35768119  0.58491965  0.97333840    -0.13700
C962        C  0.38961166  0.48061232  0.95592179     0.16100
C963        C  0.38699955  0.45367443  0.93783694     0.25500
C964        C  0.37313207  0.43420408  0.96102901    -0.40800
C965        C  0.36285994  0.44214565  0.00394521     0.32400
C966        C  0.36551695  0.46899282  0.02175864     0.14100
F967        F  0.40272659  0.49909188  0.93242867    -0.13200
F968        F  0.34938557  0.42437287  0.02817816    -0.13700
F969        F  0.39789313  0.44683284  0.89746716    -0.16000
F970        F  0.35431245  0.47626727  0.06159107    -0.14500
F971        F  0.36095462  0.53225574  0.94248875    -0.14500
F972        F  0.39292770  0.55808129  0.11934740    -0.15900
C973        C  0.24375338  0.79412246  0.00202637     0.14100
C974        C  0.24625656  0.76525776  0.00218893     0.01100
C975        C  0.22962135  0.74847028  0.98092450     0.16100
C976        C  0.21068542  0.76060212  0.95944994     0.25500
C977        C  0.20843242  0.78965159  0.95846398    -0.40900
C978        C  0.22514716  0.80624150  0.98030660     0.32500
C979        C  0.26660069  0.75298275  0.02372716     0.01100
F980        F  0.23193995  0.72042060  0.98029900    -0.13200
F981        F  0.22312869  0.83432010  0.98246134    -0.13700
C982        C  0.26460480  0.73413460  0.06096048     0.16100
C983        C  0.28393401  0.72154810  0.07955140     0.25500
C984        C  0.30548749  0.72779475  0.06121460    -0.40800
C985        C  0.30754151  0.74797842  0.02594879     0.32400
C986        C  0.28820155  0.76033043  0.00710389     0.14100
F987        F  0.24392631  0.72764843  0.07876793    -0.13200
F988        F  0.32806216  0.75407072  0.00697806    -0.13700
F989        F  0.28157142  0.70262445  0.11449215    -0.16000
F990        F  0.29047149  0.77839680  0.97086037    -0.14500
F991        F  0.25919147  0.81063176  0.02386623    -0.14500
F992        F  0.19479464  0.74404614  0.93924443    -0.15900
C993        C  0.26467101  0.62539876  0.19018355     0.14100
C994        C  0.26626211  0.61468176  0.23598964     0.01100
C995        C  0.28763887  0.60632082  0.25294844     0.16100
C996        C  0.30717691  0.61008009  0.22570088     0.25500
C997        C  0.30567826  0.62182027  0.18058573    -0.40900
C998        C  0.28410998  0.62864298  0.16259862     0.32500
C999        C  0.24600558  0.61460641  0.26719024     0.01100
F1000       F  0.28964662  0.59495144  0.29634469    -0.13200
F1001       F  0.28191761  0.64019282  0.11936489    -0.13700
C1002       C  0.22547423  0.60232087  0.25271129     0.16100
C1003       C  0.20578828  0.60529450  0.27990710     0.25500
C1004       C  0.20643065  0.61998201  0.32262508    -0.40800
C1005       C  0.22717896  0.63116959  0.33806727     0.32400
C1006       C  0.24667203  0.62879488  0.31042125     0.14100
F1007       F  0.22442757  0.58773643  0.21190951    -0.13200
F1008       F  0.22826409  0.64613914  0.37848563    -0.13700
F1009       F  0.18607839  0.59393924  0.26443617    -0.16000
F1010       F  0.26590177  0.64184109  0.32466636    -0.14500
F1011       F  0.24445150  0.63438332  0.17309261    -0.14500
F1012       F  0.32759095  0.60242618  0.24359920    -0.15900
C1013       C  0.65299024  0.46892280  0.98080658     0.14100
C1014       C  0.63472999  0.48576139  0.96708837     0.01100
C1015       C  0.61880782  0.47527765  0.93471594     0.16100
C1016       C  0.62071527  0.44790816  0.91782022     0.25500
C1017       C  0.63850265  0.43068599  0.93335684    -0.40900
C1018       C  0.65481388  0.44171551  0.96438213     0.32500
C1019       C  0.63261915  0.51405420  0.98744155     0.01100
F1020       F  0.60115679  0.49128939  0.92042345    -0.13200
F1021       F  0.67295314  0.42630932  0.97807898    -0.13700
C1022       C  0.63456236  0.53764060  0.95894942     0.16100
C1023       C  0.63586939  0.56413349  0.97919047     0.25500
C1024       C  0.63538201  0.56759480  0.02858053    -0.40800
C1025       C  0.63221141  0.54392113  0.05677825     0.32400
C1026       C  0.63088153  0.51748099  0.03636354     0.14100
F1027       F  0.63651648  0.53492737  0.91163925    -0.13200
F1028       F  0.63170130  0.54604450  0.10429924    -0.13700
F1029       F  0.63831732  0.58631101  0.95025463    -0.16000
F1030       F  0.62870110  0.49495696  0.06458637    -0.14500
F1031       F  0.66931421  0.47903515  0.00984758    -0.14500
F1032       F  0.60483616  0.43800106  0.88758700    -0.15900
C1033       C  0.78404886  0.74001800  0.96482279     0.14100
C1034       C  0.76482483  0.75549449  0.97798563     0.01100
C1035       C  0.76449676  0.78419395  0.97057542     0.16100
C1036       C  0.78302725  0.79741005  0.95073455     0.25500
C1037       C  0.80275962  0.78227552  0.93865183    -0.40900
C1038       C  0.80297143  0.75332839  0.94554353     0.32500
C1039       C  0.74499591  0.74218169  0.99987930     0.01100
F1040       F  0.74644963  0.79976770  0.98434507    -0.13200
F1041       F  0.82148276  0.73794338  0.93420351    -0.13700
C1042       C  0.74741582  0.72650762  0.04114337     0.16100
C1043       C  0.72844689  0.71434550  0.06194539     0.25500
C1044       C  0.70677624  0.71837645  0.04243469    -0.40800
C1045       C  0.70431014  0.73487706  0.00215002     0.32400
C1046       C  0.72329643  0.74629688  0.98063705     0.14100
F1047       F  0.76810238  0.72306510  0.06132256    -0.13200
F1048       F  0.68370664  0.73832448  0.98158155    -0.13700
F1049       F  0.73125025  0.69832246  0.10072042    -0.16000
F1050       F  0.72057206  0.76064048  0.94000002    -0.14500
F1051       F  0.78448700  0.71205164  0.97065511    -0.14500
F1052       F  0.78181342  0.82540466  0.94572405    -0.15900
C1053       C  0.76769671  0.60620359  0.29990544     0.14100
C1054       C  0.76673739  0.61503169  0.25291458     0.01100
C1055       C  0.78654325  0.62522560  0.23177703     0.16100
C1056       C  0.80679484  0.62716207  0.25730290     0.25500
C1057       C  0.80777047  0.61905779  0.30501966    -0.40900
C1058       C  0.78793601  0.60813192  0.32568513     0.32500
C1059       C  0.74488750  0.61504491  0.22661725     0.01100
F1060       F  0.78604217  0.63459295  0.18683177    -0.13200
F1061       F  0.78786859  0.59978238  0.37117972    -0.13700
C1062       C  0.72636420  0.63050951  0.24340326     0.16100
C1063       C  0.70620216  0.63206542  0.21754026     0.25500
C1064       C  0.70411710  0.61837029  0.17384731    -0.40800
C1065       C  0.72256816  0.60241577  0.15752287     0.32400
C1066       C  0.74271067  0.60075610  0.18369424     0.14100
F1067       F  0.72817531  0.64530675  0.28388820    -0.13200
F1068       F  0.72119893  0.58850223  0.11610287    -0.13700
F1069       F  0.68917869  0.64832652  0.23424912    -0.16000
F1070       F  0.76019703  0.58528840  0.16695655    -0.14500
F1071       F  0.74888312  0.59590387  0.32105372    -0.14500
F1072       F  0.82519537  0.63803465  0.23539829    -0.15900
C1073       C  0.48170676  0.64876678  0.13496948     0.14100
C1074       C  0.49330713  0.66875625  0.10844723     0.01100
C1075       C  0.48088027  0.68935329  0.08494258     0.16100
C1076       C  0.45719078  0.68993124  0.08773000     0.25500
C1077       C  0.44539014  0.66989928  0.11437055    -0.40900
C1078       C  0.45801823  0.64928514  0.13796742     0.32500
C1079       C  0.51839254  0.66815526  0.10557731     0.01100
F1080       F  0.49170509  0.70866435  0.05851336    -0.13200
F1081       F  0.44755635  0.62987796  0.16479606    -0.13700
C1082       C  0.52958512  0.64512826  0.08591952     0.16100
C1083       C  0.55330761  0.64414957  0.08451512     0.25500
C1084       C  0.56623670  0.66633658  0.10236588    -0.40800
C1085       C  0.55497247  0.68952606  0.12157036     0.32400
C1086       C  0.53126436  0.69038384  0.12323018     0.14100
F1087       F  0.51747983  0.62373390  0.06753824    -0.13200
F1088       F  0.56692968  0.71090789  0.14044516    -0.13700
F1089       F  0.56362958  0.62175711  0.06485696    -0.16000
F1090       F  0.52085486  0.71258608  0.14332539    -0.14500
F1091       F  0.49341563  0.62902251  0.15884900    -0.14500
F1092       F  0.44585955  0.70985809  0.06349777    -0.15900
C1093       C  0.61142253  0.97106158  0.52801274     0.14100
C1094       C  0.62644373  0.98230298  0.49459913     0.01100
C1095       C  0.64555802  0.96674996  0.48133376     0.16100
C1096       C  0.64961541  0.94057351  0.50063756     0.25500
C1097       C  0.63471806  0.92916037  0.53411303    -0.40900
C1098       C  0.61555079  0.94471866  0.54770589     0.32500
C1099       C  0.62359720  0.01092482  0.47556382     0.01100
F1100       F  0.66090093  0.97743377  0.45078387    -0.13200
F1101       F  0.60060411  0.93422289  0.57923498    -0.13700
C1102       C  0.62474588  0.03394508  0.50578364     0.16100
C1103       C  0.62723933  0.06079945  0.48765486     0.25500
C1104       C  0.62878532  0.06529933  0.43868282    -0.40800
C1105       C  0.62557957  0.04241534  0.40843630     0.32400
C1106       C  0.62306085  0.01553359  0.42674338     0.14100
F1107       F  0.62514127  0.03028013  0.55304719    -0.13200
F1108       F  0.62637465  0.04566152  0.36112829    -0.13700
F1109       F  0.62907003  0.08229096  0.51837839    -0.16000
F1110       F  0.62118810  0.99373255  0.39667839    -0.14500
F1111       F  0.59268562  0.98547905  0.54123778    -0.14500
F1112       F  0.66873716  0.92680275  0.48772279    -0.15900
C1113       C  0.72051696  0.75011342  0.47189800     0.14100
C1114       C  0.74186716  0.75239785  0.49383696     0.01100
C1115       C  0.74332927  0.76503938  0.53831511     0.16100
C1116       C  0.72399246  0.77622729  0.55945886     0.25500
C1117       C  0.70279379  0.77429550  0.53711922    -0.40900
C1118       C  0.70109055  0.76051665  0.49377681     0.32500
C1119       C  0.76231265  0.74023654  0.47151423     0.01100
F1120       F  0.76348030  0.76662910  0.56127585    -0.13200
F1121       F  0.68091319  0.75909633  0.47083152    -0.13700
C1122       C  0.78243823  0.75565565  0.46603479     0.16100
C1123       C  0.80216884  0.74292772  0.44870759     0.25500
C1124       C  0.80194456  0.71466647  0.43573572    -0.40800
C1125       C  0.78118813  0.69999286  0.43847712     0.32400
C1126       C  0.76189919  0.71245131  0.45699243     0.14100
F1127       F  0.78306112  0.78296056  0.47794602    -0.13200
F1128       F  0.77949711  0.67296237  0.42520698    -0.13700
F1129       F  0.82150051  0.75810715  0.44579013    -0.16000
F1130       F  0.74301588  0.69671835  0.46294128    -0.14500
F1131       F  0.71859982  0.73886563  0.42829577    -0.14500
F1132       F  0.72600607  0.78957971  0.60131292    -0.15900
C1133       C  0.72647471  0.89464537  0.73565429     0.14100
C1134       C  0.74714743  0.88331031  0.71956365     0.01100
C1135       C  0.74735038  0.86963411  0.67578212     0.16100
C1136       C  0.72743184  0.86700214  0.64922413     0.25500
C1137       C  0.70660532  0.87726570  0.66627105    -0.40900
C1138       C  0.70637268  0.89118168  0.70976106     0.32500
C1139       C  0.76798789  0.88379861  0.74975206     0.01100
F1140       F  0.76660485  0.85742161  0.65967559    -0.13200
F1141       F  0.68667709  0.90153317  0.72719839    -0.13700
C1142       C  0.76693343  0.87453868  0.79656806     0.16100
C1143       C  0.78652513  0.87296470  0.82422247     0.25500
C1144       C  0.80791731  0.87968293  0.80548550    -0.40800
C1145       C  0.80905178  0.88934087  0.75889581     0.32400
C1146       C  0.78926324  0.89181342  0.73159369     0.14100
F1147       F  0.74706474  0.86544464  0.81499647    -0.13200
F1148       F  0.82931505  0.89638771  0.73973195    -0.13700
F1149       F  0.78466114  0.86310523  0.86865692    -0.16000
F1150       F  0.79094341  0.90193151  0.68727030    -0.14500
F1151       F  0.72569330  0.90901256  0.77669862    -0.14500
F1152       F  0.72831642  0.85285644  0.60795947    -0.15900
C1153       C  0.63798699  0.73601502  0.76188606     0.14100
C1154       C  0.64044759  0.74795716  0.80642991     0.01100
C1155       C  0.64188897  0.77698514  0.81058633     0.16100
C1156       C  0.64087198  0.79390515  0.77052480     0.25500
C1157       C  0.63827697  0.78201720  0.72551466    -0.40900
C1158       C  0.63679617  0.75274014  0.72190654     0.32500
C1159       C  0.64075768  0.73000381  0.84856738     0.01100
F1160       F  0.64449069  0.78889758  0.85350803    -0.13200
F1161       F  0.63367657  0.74007809  0.67973426    -0.13700
C1162       C  0.65996262  0.71404849  0.85954821     0.16100
C1163       C  0.66031670  0.69745066  0.89993543     0.25500
C1164       C  0.64128847  0.69633713  0.93003301    -0.40800
C1165       C  0.62170751  0.71158658  0.91745806     0.32400
C1166       C  0.62155788  0.72832429  0.87735377     0.14100
F1167       F  0.67867007  0.71525462  0.83186846    -0.13200
F1168       F  0.60276257  0.71092496  0.94449732    -0.13700
F1169       F  0.67970723  0.68357013  0.91051782    -0.16000
F1170       F  0.60263483  0.74311839  0.86668682    -0.14500
F1171       F  0.63626251  0.70802554  0.75721963    -0.14500
F1172       F  0.64275974  0.82182168  0.77585289    -0.15900
C1173       C  0.62063227  0.76003849  0.38502542     0.14100
C1174       C  0.63631230  0.76493976  0.34892820     0.01100
C1175       C  0.65134921  0.78750911  0.35337702     0.16100
C1176       C  0.65102429  0.80441762  0.39353838     0.25500
C1177       C  0.63586733  0.79890393  0.43065857    -0.40900
C1178       C  0.62046208  0.77661159  0.42541629     0.32500
C1179       C  0.63663346  0.74682770  0.30640879     0.01100
F1180       F  0.66696832  0.79265077  0.31949317    -0.13200
F1181       F  0.60573592  0.76987130  0.46019096    -0.13700
C1182       C  0.63488362  0.75866386  0.26156014     0.16100
C1183       C  0.63492011  0.74193887  0.22144379     0.25500
C1184       C  0.63639679  0.71273045  0.22499394    -0.40800
C1185       C  0.63784261  0.70078410  0.26997697     0.32400
C1186       C  0.63818354  0.71768307  0.31024045     0.14100
F1187       F  0.63253653  0.78654962  0.25648639    -0.13200
F1188       F  0.63946693  0.67283098  0.27505592    -0.13700
F1189       F  0.63293757  0.75452775  0.17899934    -0.16000
F1190       F  0.64047909  0.70556185  0.35298673    -0.14500
F1191       F  0.60539750  0.73901976  0.38131366    -0.14500
F1192       F  0.66602969  0.82571639  0.39646032    -0.15900
C1193       C  0.38864492  0.98555358  0.55839396     0.14100
C1194       C  0.38560452  0.99021316  0.51000769     0.01100
C1195       C  0.38135909  0.96745254  0.48052357     0.16100
C1196       C  0.37850175  0.94085420  0.49933478     0.25500
C1197       C  0.37963061  0.93637157  0.54841743    -0.40900
C1198       C  0.38576087  0.95892939  0.57745593     0.32500
C1199       C  0.38333367  0.01894771  0.49146957     0.01100
F1200       F  0.37835730  0.97127042  0.43369074    -0.13200
F1201       F  0.38781919  0.95568005  0.62460883    -0.13700
C1202       C  0.39731869  0.02910460  0.45527464     0.16100
C1203       C  0.39371506  0.05579683  0.43652832     0.25500
C1204       C  0.37606599  0.07271816  0.45376787    -0.40800
C1205       C  0.36199728  0.06214627  0.48962898     0.32400
C1206       C  0.36563019  0.03572519  0.50815972     0.14100
F1207       F  0.41454545  0.01326632  0.43840336    -0.13200
F1208       F  0.34405564  0.07702205  0.50591289    -0.13700
F1209       F  0.40768414  0.06522035  0.40224203    -0.16000
F1210       F  0.35120500  0.02605256  0.54148640    -0.14500
F1211       F  0.39343844  0.00712493  0.58752829    -0.14500
F1212       F  0.37372986  0.91971494  0.46928406    -0.15900
C1213       C  0.35340609  0.72630479  0.87735171     0.14100
C1214       C  0.37446269  0.73560466  0.86081880     0.01100
C1215       C  0.39434806  0.72734518  0.88409978     0.16100
C1216       C  0.39310076  0.71099386  0.92474748     0.25500
C1217       C  0.37190073  0.70252337  0.94257107    -0.40900
C1218       C  0.35208738  0.70992878  0.91776288     0.32500
C1219       C  0.37536959  0.75395763  0.81921701     0.01100
F1220       F  0.41493005  0.73533419  0.86765885    -0.13200
F1221       F  0.33126833  0.70293325  0.93426413    -0.13700
C1222       C  0.37897503  0.78265269  0.82418971     0.16100
C1223       C  0.37794625  0.80024904  0.78493907     0.25500
C1224       C  0.37332181  0.78935523  0.73987339    -0.40800
C1225       C  0.37018328  0.76028965  0.73536749     0.32400
C1226       C  0.37113275  0.74295764  0.77457658     0.14100
F1227       F  0.38297523  0.79368866  0.86731496    -0.13200
F1228       F  0.36633498  0.74828268  0.69290403    -0.13700
F1229       F  0.38117545  0.82790193  0.79131490    -0.16000
F1230       F  0.36787976  0.71523466  0.76895510    -0.14500
F1231       F  0.33399378  0.73406038  0.85525692    -0.14500
F1232       F  0.41259168  0.70378340  0.94705772    -0.15900
C1233       C  0.37338212  0.72595681  0.32622609     0.14100
C1234       C  0.37247622  0.75504636  0.32172742     0.01100
C1235       C  0.37220960  0.76668443  0.27674205     0.16100
C1236       C  0.37277806  0.74977180  0.23682906     0.25500
C1237       C  0.37353984  0.72045913  0.24069850    -0.40900
C1238       C  0.37383203  0.70878743  0.28615754     0.32500
C1239       C  0.37188550  0.77352149  0.36364309     0.01100
F1240       F  0.37182850  0.79469312  0.27141268    -0.13200
F1241       F  0.37423588  0.68082609  0.29202080    -0.13700
C1242       C  0.39058413  0.77505952  0.39399887     0.16100
C1243       C  0.39000982  0.79231699  0.43365967     0.25500
C1244       C  0.37047507  0.80821749  0.44439123    -0.40800
C1245       C  0.35213904  0.80753257  0.41251192     0.32400
C1246       C  0.35289996  0.79041281  0.37257887     0.14100
F1247       F  0.40947946  0.75977364  0.38520897    -0.13200
F1248       F  0.33297545  0.82235875  0.42094250    -0.13700
F1249       F  0.40851161  0.79290168  0.46209574    -0.16000
F1250       F  0.33469362  0.78955407  0.34338633    -0.14500
F1251       F  0.37343191  0.71416668  0.36949574    -0.14500
F1252       F  0.37290565  0.76244643  0.19428521    -0.15900
C1253       C  0.47853943  0.81679122  0.58634871     0.14100
C1254       C  0.49146697  0.83502592  0.61422976     0.01100
C1255       C  0.48019039  0.85371650  0.64418493     0.16100
C1256       C  0.45647752  0.85444271  0.64580918     0.25500
C1257       C  0.44347848  0.83631375  0.61769838    -0.40900
C1258       C  0.45480771  0.81730654  0.58822478     0.32500
C1259       C  0.51667419  0.83447276  0.61230092     0.01100
F1260       F  0.49217555  0.87092718  0.67271871    -0.13200
F1261       F  0.44294246  0.79966860  0.56021331    -0.13700
C1262       C  0.52896706  0.85864426  0.60150030     0.16100
C1263       C  0.55273268  0.85820161  0.60033433     0.25500
C1264       C  0.56472523  0.83344240  0.60939658    -0.40800
C1265       C  0.55232523  0.80921512  0.61983348     0.32400
C1266       C  0.52859305  0.80979254  0.62155103     0.14100
F1267       F  0.51790924  0.88261872  0.59116996    -0.13200
F1268       F  0.56317468  0.78505922  0.62982496    -0.13700
F1269       F  0.56396138  0.88187966  0.58916824    -0.16000
F1270       F  0.51723783  0.78632774  0.63345460    -0.14500
F1271       F  0.48890595  0.79885078  0.55642024    -0.14500
F1272       F  0.44627211  0.87246012  0.67587323    -0.15900
C1273       C  0.23810170  0.71994085  0.51568199     0.14100
C1274       C  0.24200795  0.74793174  0.50567326     0.01100
C1275       C  0.22742178  0.76219478  0.47488714     0.16100
C1276       C  0.20932995  0.74820930  0.45342129     0.25500
C1277       C  0.20595194  0.71984557  0.46231443    -0.40900
C1278       C  0.22031958  0.70598177  0.49416571     0.32500
C1279       C  0.26218282  0.76145548  0.52550343     0.01100
F1280       F  0.23112177  0.78933780  0.46469516    -0.13200
F1281       F  0.21679654  0.67894665  0.50555692    -0.13700
C1282       C  0.28379787  0.75164582  0.51320397     0.16100
C1283       C  0.30316393  0.76451171  0.53089726     0.25500
C1284       C  0.30117307  0.78753500  0.56107035    -0.40800
C1285       C  0.27940616  0.79655460  0.57498051     0.32400
C1286       C  0.26004155  0.78357676  0.55721199     0.14100
F1287       F  0.28610755  0.73022705  0.48246616    -0.13200
F1288       F  0.27686439  0.81826295  0.60507099    -0.13700
F1289       F  0.32378041  0.75555775  0.51596472    -0.16000
F1290       F  0.23922046  0.79262319  0.57074065    -0.14500
F1291       F  0.25156881  0.70612906  0.54654300    -0.14500
F1292       F  0.19561951  0.76204479  0.42310022    -0.15900
C1293       C  0.28284901  0.87792376  0.75624494     0.14100
C1294       C  0.26500239  0.89427993  0.73898744     0.01100
C1295       C  0.26791078  0.90837541  0.69619425     0.16100
C1296       C  0.28809671  0.90541901  0.67035750     0.25500
C1297       C  0.30579223  0.88827287  0.68692116    -0.40900
C1298       C  0.30296027  0.87492566  0.73067205     0.32500
C1299       C  0.24279441  0.89426661  0.76380384     0.01100
F1300       F  0.25105020  0.92473852  0.67918611    -0.13200
F1301       F  0.31912670  0.85753561  0.74769481    -0.13700
C1302       C  0.24086677  0.90441437  0.80995434     0.16100
C1303       C  0.22073350  0.90076046  0.83551346     0.25500
C1304       C  0.20208314  0.88658821  0.81553207    -0.40800
C1305       C  0.20388744  0.87747971  0.76842249     0.32400
C1306       C  0.22397403  0.88131694  0.74302046     0.14100
F1307       F  0.25873079  0.91733186  0.83068406    -0.13200
F1308       F  0.18667698  0.86345559  0.74736856    -0.13700
F1309       F  0.21978859  0.91054956  0.88021860    -0.16000
F1310       F  0.22551386  0.87080870  0.69884371    -0.14500
F1311       F  0.28030630  0.86351866  0.79684708    -0.14500
F1312       F  0.29021155  0.91916066  0.62902750    -0.15900
loop_ 
_geom_bond_atom_site_label_1 
_geom_bond_atom_site_label_2 
_geom_bond_distance 
_geom_bond_site_symmetry_2 
_ccdc_geom_bond_type 
Fe1          O17   2.055       .  S
Fe1           O7   2.112       .  S
Fe1          O14   2.117       .  S
Fe1           O6   2.053       .  S
Fe1          O12   1.946       .  S
Fe2           O5   2.030       .  S
Fe2           O9   2.104       .  S
Fe2          O13   2.044       .  S
Fe2          O18   2.115       .  S
Fe2          O12   1.947       .  S
Fe3          O21   2.094       .  S
Fe3           O8   2.040       .  S
Fe3          O15   2.037       .  S
Fe3           O4   2.089       .  S
Fe3          O12   1.937       .  S
O4           C11   1.275       .  A
O5           C19   1.264       .  A
O6           C11   1.270       .  A
O7           C10   1.278       .  A
O8           C20   1.264       .  A
O9           C22   1.276       .  A
C10          O15   1.265       .  A
C10        C1224   1.496       .  S
C11        C1257   1.485       .  S
O13          C16   1.268       .  A
O14          C16   1.281       .  A
C16        C1197   1.497       .  S
O17          C22   1.268       .  A
O18          C20   1.278       .  A
C19          O21   1.276       .  A
C19        C1284   1.473       .  S
C20        C1244   1.496       .  S
C22        C1297   1.495       .  S
Fe23         O39   2.117       .  S
Fe23         O29   2.068       .  S
Fe23         O36   2.073       .  S
Fe23         O28   2.112       .  S
Fe23         O34   1.949       .  S
Fe24         O27   2.104       .  S
Fe24         O31   2.047       .  S
Fe24         O35   2.081       .  S
Fe24         O40   2.031       .  S
Fe24         O34   1.946       .  S
Fe25         O43   2.044       .  S
Fe25         O30   2.102       .  S
Fe25         O37   2.086       .  S
Fe25         O26   2.042       .  S
Fe25         O34   1.948       .  S
O26          C33   1.268       .  A
O27          C41   1.275       .  A
O28          C33   1.280       .  A
O29          C32   1.271       .  A
O30          C42   1.275       .  A
O31          C44   1.271       .  A
C32          O37   1.273       .  A
C32        C1264   1.489       .  S
C33        C1157   1.494       .  S
O35          C38   1.270       .  A
O36          C38   1.269       .  A
C38        C1137   1.490       .  S
O39          C44   1.282       .  A
O40          C42   1.262       .  A
C41          O43   1.265       .  A
C41        C1177   1.494       .  S
C42        C1117   1.467       .  S
C44        C1097   1.490       .  S
Fe45         O61   2.057       .  S
Fe45         O51   2.114       .  S
Fe45         O58   2.119       .  S
Fe45         O50   2.061       .  S
Fe45         O56   1.937       .  S
Fe46         O49   2.032       .  S
Fe46         O53   2.092       .  S
Fe46         O57   2.039       .  S
Fe46         O62   2.106   1_554  S
Fe46         O56   1.940       .  S
Fe47         O65   2.088       .  S
Fe47         O52   2.045       .  S
Fe47         O59   2.036       .  S
Fe47         O48   2.085       .  S
Fe47         O56   1.936       .  S
O48          C55   1.273       .  A
O49          C63   1.262       .  A
O50          C55   1.270       .  A
O51          C54   1.280       .  A
O52          C64   1.267   1_554  A
O53          C66   1.273       .  A
C54          O59   1.267       .  A
C54        C1184   1.489       .  S
C55        C1084   1.480       .  S
O57          C60   1.268       .  A
O58          C60   1.282       .  A
C60        C1024   1.493       .  S
O61          C66   1.267       .  A
O62          C64   1.277       .  A
C63          O65   1.273       .  A
C63        C1044   1.464       .  S
C64        C1164   1.493       .  S
C66        C1064   1.491       .  S
Fe67         O83   2.113       .  S
Fe67         O73   2.065       .  S
Fe67         O80   2.063       .  S
Fe67         O72   2.112       .  S
Fe67         O78   1.952       .  S
Fe68         O71   2.093   1_554  S
Fe68         O75   2.043       .  S
Fe68         O79   2.079       .  S
Fe68         O84   2.031       .  S
Fe68         O78   1.947       .  S
Fe69         O87   2.053       .  S
Fe69         O74   2.089       .  S
Fe69         O81   2.077       .  S
Fe69         O70   2.044       .  S
Fe69         O78   1.947       .  S
O70          C77   1.267       .  A
O71          C85   1.272       .  A
O72          C77   1.278       .  A
O73          C76   1.272       .  A
O74          C86   1.275       .  A
O75          C88   1.271       .  A
C76          O81   1.273       .  A
C76        C1077   1.490       .  S
C77        C1237   1.499       .  S
O79          C82   1.270       .  A
O80          C82   1.268       .  A
C82         C997   1.485       .  S
O83          C88   1.280       .  A
O84          C86   1.265       .  A
C85          O87   1.265   1_556  A
C85        C1217   1.486       .  S
C86         C984   1.466       .  S
C88         C957   1.496       .  S
Fe89        O105   2.058       .  S
Fe89         O95   2.114       .  S
Fe89        O102   2.120       .  S
Fe89         O94   2.054       .  S
Fe89        O100   1.938       .  S
Fe90         O93   2.022       .  S
Fe90         O97   2.098       .  S
Fe90        O101   2.038       .  S
Fe90        O106   2.111   1_556  S
Fe90        O100   1.932       .  S
Fe91        O109   2.105       .  S
Fe91         O96   2.049       .  S
Fe91        O103   2.044       .  S
Fe91         O92   2.093       .  S
Fe91        O100   1.941       .  S
O92          C99   1.276       .  A
O93         C107   1.262       .  A
O94          C99   1.270       .  A
O95          C98   1.280       .  A
O96         C108   1.267   1_556  A
O97         C110   1.274       .  A
C98         O103   1.267       .  A
C98         C897   1.497       .  S
C99         C937   1.480       .  S
O101        C104   1.268       .  A
O102        C104   1.282       .  A
C104        C877   1.493       .  S
O105        C110   1.268       .  A
O106        C108   1.277       .  A
C107        O109   1.276       .  A
C107        C977   1.474       .  S
C108        C917   1.496       .  S
C110       C1304   1.498       .  S
Fe111       O127   2.115       .  S
Fe111       O117   2.054       .  S
Fe111       O124   2.068       .  S
Fe111       O116   2.105       .  S
Fe111       O122   1.945       .  S
Fe112       O115   2.107       .  S
Fe112       O119   2.040       .  S
Fe112       O123   2.086       .  S
Fe112       O128   2.020       .  S
Fe112       O122   1.939       .  S
Fe113       O131   2.044       .  S
Fe113       O118   2.104       .  S
Fe113       O125   2.087       .  S
Fe113       O114   2.046       .  S
Fe113       O122   1.946       .  S
O114        C121   1.268       .  A
O115        C129   1.276   1_556  A
O116        C121   1.277       .  A
O117        C120   1.271       .  A
O118        C130   1.276       .  A
O119        C132   1.268       .  A
C120        O125   1.275       .  A
C120        C944   1.483       .  S
C121        C837   1.494       .  S
O123        C126   1.272       .  A
O124        C126   1.269       .  A
C126       C1144   1.490       .  S
O127        C132   1.280       .  A
O128        C130   1.261       .  A
C129        O131   1.265   1_554  A
C129        C857   1.494       .  S
C130       C1037   1.481       .  S
C132        C817   1.475       .  S
Fe133       O149   2.050       .  S
Fe133       O139   2.104       .  S
Fe133       O146   2.119       .  S
Fe133       O138   2.055       .  S
Fe133       O144   1.941       .  S
Fe134       O137   2.020       .  S
Fe134       O141   2.101       .  S
Fe134       O145   2.050       .  S
Fe134       O150   2.101       .  S
Fe134       O144   1.937       .  S
Fe135       O153   2.117       .  S
Fe135       O140   2.050       .  S
Fe135       O147   2.046       .  S
Fe135       O136   2.102       .  S
Fe135       O144   1.941       .  S
O136        C143   1.279       .  A
O137        C151   1.263       .  A
O138        C143   1.272       .  A
O139        C142   1.277       .  A
O140        C152   1.265       .  A
O141        C154   1.275       .  A
C142        O147   1.266       .  A
C142        C864   1.496       .  S
C143        C797   1.490       .  S
O145        C148   1.268       .  A
O146        C148   1.280       .  A
C148        C777   1.483       .  S
O149        C154   1.266       .  A
O150        C152   1.275       .  A
C151        O153   1.280       .  A
C151       C1124   1.489       .  S
C152        C844   1.482       .  S
C154       C1057   1.498       .  S
Fe155       O171   2.116       .  S
Fe155       O161   2.054       .  S
Fe155       O168   2.060       .  S
Fe155       O160   2.106       .  S
Fe155       O166   1.955       .  S
Fe156       O159   2.090       .  S
Fe156       O163   2.041       .  S
Fe156       O167   2.078       .  S
Fe156       O172   2.026       .  S
Fe156       O166   1.947       .  S
Fe157       O175   2.057       .  S
Fe157       O162   2.097       .  S
Fe157       O169   2.086       .  S
Fe157       O158   2.055       .  S
Fe157       O166   1.954       .  S
O158        C165   1.269       .  A
O159        C173   1.272       .  A
O160        C165   1.278       .  A
O161        C164   1.269       .  A
O162        C174   1.275       .  A
O163        C176   1.269       .  A
C164        O169   1.274       .  A
C164        C804   1.483       .  S
C165        C924   1.501       .  S
O167        C170   1.269       .  A
O168        C170   1.266       .  A
C170       C1004   1.480       .  S
O171        C176   1.281       .  A
O172        C174   1.264       .  A
C173        O175   1.268       .  A
C173        C904   1.493       .  S
C174       C1277   1.468       .  S
C176        C764   1.498       .  S
Fe177       O193   2.056       .  S
Fe177       O183   2.112       .  S
Fe177       O190   2.114       .  S
Fe177       O182   2.053       .  S
Fe177       O188   1.941       .  S
Fe178       O181   2.027       .  S
Fe178       O185   2.091       .  S
Fe178       O189   2.040       .  S
Fe178       O194   2.111       .  S
Fe178       O188   1.942       .  S
Fe179       O197   2.097       .  S
Fe179       O184   2.042       .  S
Fe179       O191   2.047       .  S
Fe179       O180   2.084       .  S
Fe179       O188   1.938       .  S
O180        C187   1.275       .  A
O181        C195   1.264       .  A
O182        C187   1.269       .  A
O183        C186   1.280       .  A
O184        C196   1.263   1_556  A
O185        C198   1.273       .  A
C186        O191   1.266       .  A
C186        C704   1.501       .  S
C187        C744   1.486       .  S
O189        C192   1.270       .  A
O190        C192   1.280       .  A
C192       C1017   1.483       .  S
O193        C198   1.268       .  A
O194        C196   1.275   1_556  A
C195        O197   1.277       .  A
C195        C657   1.467       .  S
C196        C724   1.497       .  S
C198        C677   1.490       .  S
Fe199       O215   2.115       .  S
Fe199       O205   2.053       .  S
Fe199       O212   2.053       .  S
Fe199       O204   2.108       .  S
Fe199       O210   1.941       .  S
Fe200       O203   2.102   1_556  S
Fe200       O207   2.036       .  S
Fe200       O211   2.095       .  S
Fe200       O216   2.027       .  S
Fe200       O210   1.939       .  S
Fe201       O219   2.051       .  S
Fe201       O206   2.089       .  S
Fe201       O213   2.083       .  S
Fe201       O202   2.039       .  S
Fe201       O210   1.943       .  S
O202        C209   1.267       .  A
O203        C217   1.276       .  A
O204        C209   1.279       .  A
O205        C208   1.268       .  A
O206        C218   1.273       .  A
O207        C220   1.268       .  A
C208        O213   1.273       .  A
C208        C737   1.479       .  S
C209        C577   1.491       .  S
O211        C214   1.272       .  A
O212        C214   1.266       .  A
C214        C637   1.491       .  S
O215        C220   1.281       .  A
O216        C218   1.263       .  A
C217        O219   1.268   1_554  A
C217        C604   1.490       .  S
C218        C617   1.465       .  S
C220        C964   1.493       .  S
Fe221       O237   2.065       .  S
Fe221       O227   2.102       .  S
Fe221       O234   2.128       .  S
Fe221       O226   2.060       .  S
Fe221       O232   1.940       .  S
Fe222       O225   2.021       .  S
Fe222       O229   2.088       .  S
Fe222       O233   2.034       .  S
Fe222       O238   2.101       .  S
Fe222       O232   1.937       .  S
Fe223       O241   2.112       .  S
Fe223       O228   2.044       .  S
Fe223       O235   2.048       .  S
Fe223       O224   2.089       .  S
Fe223       O232   1.947       .  S
O224        C231   1.275       .  A
O225        C239   1.260       .  A
O226        C231   1.272       .  A
O227        C230   1.279       .  A
O228        C240   1.265       .  A
O229        C242   1.271       .  A
C230        O235   1.269       .  A
C230        C597   1.494       .  S
C231        C517   1.480       .  S
O233        C236   1.268       .  A
O234        C236   1.284       .  A
C236       C1204   1.491       .  S
O237        C242   1.268       .  A
O238        C240   1.275       .  A
C239        O241   1.276       .  A
C239        C564   1.468       .  S
C240        C584   1.490       .  S
C242        C544   1.500       .  S
Fe243       O259   2.117       .  S
Fe243       O249   2.065       .  S
Fe243       O256   2.076       .  S
Fe243       O248   2.103       .  S
Fe243       O254   1.951       .  S
Fe244       O247   2.112       .  S
Fe244       O251   2.047       .  S
Fe244       O255   2.101       .  S
Fe244       O260   2.016       .  S
Fe244       O254   1.941       .  S
Fe245       O263   2.051       .  S
Fe245       O250   2.104       .  S
Fe245       O257   2.087       .  S
Fe245       O246   2.052       .  S
Fe245       O254   1.954       .  S
O246        C253   1.269       .  A
O247        C261   1.278       .  A
O248        C253   1.277       .  A
O249        C252   1.273       .  A
O250        C262   1.275       .  A
O251        C264   1.268       .  A
C252        O257   1.275       .  A
C252        C524   1.495       .  S
C253        C717   1.492       .  S
O255        C258   1.275       .  A
O256        C258   1.271       .  A
C258        C484   1.502       .  S
O259        C264   1.280       .  A
O260        C262   1.259       .  A
C261        O263   1.267       .  A
C261        C697   1.496       .  S
C262        C504   1.477       .  S
C264       C1104   1.497       .  S
Fe265       O281   2.054       .  S
Fe265       O271   2.112       .  S
Fe265       O278   2.119       .  S
Fe265       O270   2.058       .  S
Fe265       O276   1.947       .  S
Fe266       O269   2.033       .  S
Fe266       O273   2.095       .  S
Fe266       O277   2.049       .  S
Fe266       O282   2.103       .  S
Fe266       O276   1.945       .  S
Fe267       O285   2.088       .  S
Fe267       O272   2.050       .  S
Fe267       O279   2.044       .  S
Fe267       O268   2.077       .  S
Fe267       O276   1.945       .  S
O268        C275   1.273       .  A
O269        C283   1.266       .  A
O270        C275   1.270       .  A
O271        C274   1.279       .  A
O272        C284   1.265       .  A
O273        C286   1.273       .  A
C274        O279   1.266       .  A
C274        C437   1.492       .  S
C275        C457   1.490       .  S
O277        C280   1.270       .  A
O278        C280   1.282       .  A
C280        C784   1.487       .  S
O281        C286   1.266       .  A
O282        C284   1.275       .  A
C283        O285   1.275       .  A
C283        C497   1.468       .  S
C284        C417   1.494       .  S
C286        C684   1.495       .  S
Fe287       O303   2.111       .  S
Fe287       O293   2.057       .  S
Fe287       O300   2.056       .  S
Fe287       O292   2.115       .  S
Fe287       O298   1.943       .  S
Fe288       O291   2.099       .  S
Fe288       O295   2.046       .  S
Fe288       O299   2.092       .  S
Fe288       O304   2.028       .  S
Fe288       O298   1.941       .  S
Fe289       O307   2.039       .  S
Fe289       O294   2.097       .  S
Fe289       O301   2.085       .  S
Fe289       O290   2.031       .  S
Fe289       O298   1.942       .  S
O290        C297   1.264       .  A
O291        C305   1.275       .  A
O292        C297   1.278       .  A
O293        C296   1.269       .  A
O294        C306   1.276       .  A
O295        C308   1.268       .  A
C296        O301   1.274       .  A
C296        C464   1.471       .  S
C297        C404   1.494       .  S
O299        C302   1.273       .  A
O300        C302   1.268       .  A
C302        C644   1.497       .  S
O303        C308   1.280       .  A
O304        C306   1.264       .  A
C305        O307   1.264       .  A
C305        C384   1.485       .  S
C306        C557   1.474       .  S
C308        C757   1.495       .  S
Fe309       O325   2.063       .  S
Fe309       O315   2.109       .  S
Fe309       O322   2.117       .  S
Fe309       O314   2.063       .  S
Fe309       O320   1.930       .  S
Fe310       O313   2.020       .  S
Fe310       O317   2.096       .  S
Fe310       O321   2.040       .  S
Fe310       O326   2.119       .  S
Fe310       O320   1.927       .  S
Fe311       O329   2.103       .  S
Fe311       O316   2.039       .  S
Fe311       O323   2.035       .  S
Fe311       O312   2.090       .  S
Fe311       O320   1.938       .  S
O312        C319   1.275       .  A
O313        C327   1.258       .  A
O314        C319   1.272       .  A
O315        C318   1.279       .  A
O316        C328   1.267   1_554  A
O317        C330   1.274       .  A
C318        O323   1.267       .  A
C318        C377   1.486       .  S
C319        C364   1.478       .  S
O321        C324   1.269       .  A
O322        C324   1.281       .  A
C324        C884   1.489       .  S
O325        C330   1.269       .  A
O326        C328   1.281   1_554  A
C327        O329   1.273       .  A
C327        C624   1.470       .  S
C328        C397   1.488       .  S
C330        C537   1.495       .  S
Fe331       O347   2.113       .  S
Fe331       O337   2.063       .  S
Fe331       O344   2.072       .  S
Fe331       O336   2.106       .  S
Fe331       O342   1.950       .  S
Fe332       O335   2.114   1_554  S
Fe332       O339   2.047       .  S
Fe332       O343   2.106       .  S
Fe332       O348   2.016       .  S
Fe332       O342   1.943       .  S
Fe333       O351   2.046       .  S
Fe333       O338   2.104       .  S
Fe333       O345   2.093       .  S
Fe333       O334   2.048       .  S
Fe333       O342   1.949       .  S
O334        C341   1.267       .  A
O335        C349   1.277       .  A
O336        C341   1.277       .  A
O337        C340   1.273       .  A
O338        C350   1.277       .  A
O339        C352   1.267       .  A
C340        O345   1.276       .  A
C340        C357   1.496       .  S
C341        C424   1.498       .  S
O343        C346   1.277       .  A
O344        C346   1.271       .  A
C346        C477   1.500       .  S
O347        C352   1.279       .  A
O348        C350   1.261       .  A
C349        O351   1.265   1_556  A
C349        C444   1.499       .  S
C350        C664   1.481       .  S
C352        C824   1.488       .  S
C353        C354   1.403       .  A
C353        C358   1.398       .  A
C353        F371   1.358       .  S
C354        C359   1.485   1_655  S
C354        C355   1.405       .  A
C355        C356   1.403       .  A
C355        F360   1.358       .  S
C356        C357   1.415       .  A
C356        F372   1.358       .  S
C357        C358   1.413       .  A
C358        F361   1.357       .  S
C359        C362   1.407       .  A
C359        C366   1.406       .  A
C362        C363   1.400       .  A
C362        F367   1.358       .  S
C363        C364   1.406       .  A
C363        F369   1.358       .  S
C364        C365   1.407       .  A
C365        C366   1.401       .  A
C365        F368   1.358       .  S
C366        F370   1.358       .  S
C373        C374   1.398       .  A
C373        C378   1.394       .  A
C373        F391   1.358       .  S
C374        C379   1.476       .  S
C374        C375   1.405       .  A
C375        C376   1.403       .  A
C375        F380   1.358       .  S
C376        C377   1.410       .  A
C376        F392   1.358       .  S
C377        C378   1.414       .  A
C378        F381   1.358       .  S
C379        C382   1.401       .  A
C379        C386   1.403       .  A
C382        C383   1.399       .  A
C382        F387   1.358       .  S
C383        C384   1.412       .  A
C383        F389   1.358       .  S
C384        C385   1.411       .  A
C385        C386   1.399       .  A
C385        F388   1.358       .  S
C386        F390   1.358       .  S
C393        C394   1.407       .  A
C393        C398   1.401       .  A
C393        F411   1.358       .  S
C394        C399   1.493       .  S
C394        C395   1.409       .  A
C395        C396   1.401       .  A
C395        F400   1.358       .  S
C396        C397   1.409       .  A
C396        F412   1.358       .  S
C397        C398   1.411       .  A
C398        F401   1.358       .  S
C399        C402   1.411       .  A
C399        C406   1.403       .  A
C402        C403   1.407       .  A
C402        F407   1.358       .  S
C403        C404   1.410       .  A
C403        F409   1.358       .  S
C404        C405   1.415       .  A
C405        C406   1.395       .  A
C405        F408   1.358       .  S
C406        F410   1.358       .  S
C413        C414   1.404       .  A
C413        C418   1.402       .  A
C413        F431   1.358       .  S
C414        C419   1.486       .  S
C414        C415   1.404       .  A
C415        C416   1.403       .  A
C415        F420   1.358       .  S
C416        C417   1.413       .  A
C416        F432   1.358       .  S
C417        C418   1.413       .  A
C418        F421   1.358       .  S
C419        C422   1.401       .  A
C419        C426   1.406       .  A
C422        C423   1.399       .  A
C422        F427   1.358       .  S
C423        C424   1.417       .  A
C423        F429   1.358       .  S
C424        C425   1.412       .  A
C425        C426   1.405       .  A
C425        F428   1.357       .  S
C426        F430   1.358       .  S
C433        C434   1.401       .  A
C433        C438   1.400       .  A
C433        F451   1.358       .  S
C434        C439   1.486       .  S
C434        C435   1.408       .  A
C435        C436   1.406       .  A
C435        F440   1.357       .  S
C436        C437   1.409       .  A
C436        F452   1.357       .  S
C437        C438   1.414       .  A
C438        F441   1.358       .  S
C439        C442   1.401       .  A
C439        C446   1.405       .  A
C442        C443   1.401       .  A
C442        F447   1.358       .  S
C443        C444   1.416       .  A
C443        F449   1.358       .  S
C444        C445   1.413       .  A
C445        C446   1.406       .  A
C445        F448   1.357       .  S
C446        F450   1.358       .  S
C453        C454   1.404       .  A
C453        C458   1.399       .  A
C453        F471   1.358       .  S
C454        C459   1.482   1_655  S
C454        C455   1.403       .  A
C455        C456   1.397       .  A
C455        F460   1.358       .  S
C456        C457   1.413       .  A
C456        F472   1.358       .  S
C457        C458   1.413       .  A
C458        F461   1.358       .  S
C459        C462   1.407       .  A
C459        C466   1.407       .  A
C462        C463   1.397       .  A
C462        F467   1.358       .  S
C463        C464   1.403       .  A
C463        F469   1.358       .  S
C464        C465   1.406       .  A
C465        C466   1.400       .  A
C465        F468   1.358       .  S
C466        F470   1.358       .  S
C473        C474   1.413       .  A
C473        C478   1.407       .  A
C473        F491   1.357       .  S
C474        C479   1.514       .  S
C474        C475   1.414       .  A
C475        C476   1.410       .  A
C475        F480   1.357       .  S
C476        C477   1.409       .  A
C476        F492   1.358       .  S
C477        C478   1.409       .  A
C478        F481   1.357       .  S
C479        C482   1.414       .  A
C479        C486   1.413       .  A
C482        C483   1.410       .  A
C482        F487   1.357       .  S
C483        C484   1.409       .  A
C483        F489   1.358       .  S
C484        C485   1.411       .  A
C485        C486   1.407       .  A
C485        F488   1.358       .  S
C486        F490   1.358       .  S
C493        C494   1.402       .  A
C493        C498   1.394       .  A
C493        F511   1.358       .  S
C494        C499   1.471       .  S
C494        C495   1.405       .  A
C495        C496   1.393       .  A
C495        F500   1.358       .  S
C496        C497   1.406       .  A
C496        F512   1.358       .  S
C497        C498   1.408       .  A
C498        F501   1.358       .  S
C499        C502   1.408       .  A
C499        C506   1.397       .  A
C502        C503   1.401       .  A
C502        F507   1.358       .  S
C503        C504   1.406       .  A
C503        F509   1.358       .  S
C504        C505   1.415       .  A
C505        C506   1.387       .  A
C505        F508   1.359       .  S
C506        F510   1.359       .  S
C513        C514   1.407       .  A
C513        C518   1.399       .  A
C513        F531   1.358       .  S
C514        C519   1.487       .  S
C514        C515   1.407       .  A
C515        C516   1.402       .  A
C515        F520   1.358       .  S
C516        C517   1.407       .  A
C516        F532   1.358       .  S
C517        C518   1.406       .  A
C518        F521   1.358       .  S
C519        C522   1.405       .  A
C519        C526   1.405       .  A
C522        C523   1.402       .  A
C522        F527   1.358       .  S
C523        C524   1.414       .  A
C523        F529   1.358       .  S
C524        C525   1.412       .  A
C525        C526   1.399       .  A
C525        F528   1.358       .  S
C526        F530   1.358       .  S
C533        C534   1.406       .  A
C533        C538   1.402       .  A
C533        F551   1.358       .  S
C534        C539   1.494       .  S
C534        C535   1.408       .  A
C535        C536   1.405       .  A
C535        F540   1.358       .  S
C536        C537   1.410       .  A
C536        F552   1.357       .  S
C537        C538   1.413       .  A
C538        F541   1.358       .  S
C539        C542   1.406       .  A
C539        C546   1.406       .  A
C542        C543   1.404       .  A
C542        F547   1.358       .  S
C543        C544   1.414       .  A
C543        F549   1.358       .  S
C544        C545   1.414       .  A
C545        C546   1.402       .  A
C545        F548   1.358       .  S
C546        F550   1.358       .  S
C553        C554   1.406       .  A
C553        C558   1.396       .  A
C553        F571   1.358       .  S
C554        C559   1.472       .  S
C554        C555   1.400       .  A
C555        C556   1.394       .  A
C555        F560   1.358       .  S
C556        C557   1.411       .  A
C556        F572   1.359       .  S
C557        C558   1.406       .  A
C558        F561   1.358       .  S
C559        C562   1.410       .  A
C559        C566   1.398       .  A
C562        C563   1.402       .  A
C562        F567   1.358       .  S
C563        C564   1.402       .  A
C563        F569   1.357       .  S
C564        C565   1.410       .  A
C565        C566   1.388       .  A
C565        F568   1.359       .  S
C566        F570   1.358       .  S
C573        C574   1.399       .  A
C573        C578   1.395       .  A
C573        F591   1.358       .  S
C574        C579   1.479       .  S
C574        C575   1.406       .  A
C575        C576   1.404       .  A
C575        F580   1.358       .  S
C576        C577   1.411       .  A
C576        F592   1.358       .  S
C577        C578   1.415       .  A
C578        F581   1.358       .  S
C579        C582   1.403       .  A
C579        C586   1.401       .  A
C582        C583   1.399       .  A
C582        F587   1.358       .  S
C583        C584   1.413       .  A
C583        F589   1.358       .  S
C584        C585   1.414       .  A
C585        C586   1.400       .  A
C585        F588   1.358       .  S
C586        F590   1.358       .  S
C593        C594   1.403       .  A
C593        C598   1.399       .  A
C593        F611   1.358       .  S
C594        C599   1.487       .  S
C594        C595   1.406       .  A
C595        C596   1.401       .  A
C595        F600   1.358       .  S
C596        C597   1.411       .  A
C596        F612   1.358       .  S
C597        C598   1.415       .  A
C598        F601   1.358       .  S
C599        C602   1.405       .  A
C599        C606   1.406       .  A
C602        C603   1.401       .  A
C602        F607   1.358       .  S
C603        C604   1.411       .  A
C603        F609   1.358       .  S
C604        C605   1.412       .  A
C605        C606   1.400       .  A
C605        F608   1.358       .  S
C606        F610   1.358       .  S
C613        C614   1.404   1_554  A
C613        C618   1.393   1_554  A
C613        F631   1.358       .  S
C614        C619   1.466   1_556  S
C614        C615   1.401       .  A
C615        C616   1.393       .  A
C615        F620   1.358       .  S
C616        C617   1.408       .  A
C616        F632   1.358       .  S
C617        C618   1.406       .  A
C618        F621   1.358   1_556  S
C619        C622   1.407       .  A
C619        C626   1.397       .  A
C622        C623   1.400       .  A
C622        F627   1.358       .  S
C623        C624   1.405       .  A
C623        F629   1.357       .  S
C624        C625   1.412       .  A
C625        C626   1.386       .  A
C625        F628   1.359       .  S
C626        F630   1.359   1_554  S
C633        C634   1.409       .  A
C633        C638   1.404       .  A
C633        F651   1.358       .  S
C634        C639   1.494       .  S
C634        C635   1.407       .  A
C635        C636   1.399       .  A
C635        F640   1.358       .  S
C636        C637   1.411       .  A
C636        F652   1.358       .  S
C637        C638   1.409       .  A
C638        F641   1.358       .  S
C639        C642   1.408       .  A
C639        C646   1.406       .  A
C642        C643   1.403       .  A
C642        F647   1.358       .  S
C643        C644   1.413       .  A
C643        F649   1.358       .  S
C644        C645   1.413       .  A
C645        C646   1.400       .  A
C645        F648   1.358       .  S
C646        F650   1.358       .  S
C653        C654   1.405       .  A
C653        C658   1.394       .  A
C653        F671   1.358   1_556  S
C654        C659   1.470       .  S
C654        C655   1.402       .  A
C655        C656   1.394       .  A
C655        F660   1.358       .  S
C656        C657   1.408       .  A
C656        F672   1.358       .  S
C657        C658   1.405       .  A
C658        F661   1.358       .  S
C659        C662   1.397       .  A
C659        C666   1.406   1_556  A
C662        C663   1.387   1_556  A
C662        F667   1.359       .  S
C663        C664   1.416       .  A
C663        F669   1.358       .  S
C664        C665   1.408       .  A
C665        C666   1.401       .  A
C665        F668   1.358       .  S
C666        F670   1.358       .  S
C673        C674   1.406       .  A
C673        C678   1.403       .  A
C673        F691   1.358       .  S
C674        C679   1.486       .  S
C674        C675   1.405       .  A
C675        C676   1.398       .  A
C675        F680   1.358       .  S
C676        C677   1.411       .  A
C676        F692   1.358       .  S
C677        C678   1.412       .  A
C678        F681   1.358       .  S
C679        C682   1.404       .  A
C679        C686   1.405       .  A
C682        C683   1.400       .  A
C682        F687   1.358       .  S
C683        C684   1.414       .  A
C683        F689   1.358       .  S
C684        C685   1.412       .  A
C685        C686   1.402       .  A
C685        F688   1.357       .  S
C686        F690   1.358       .  S
C693        C694   1.407       .  A
C693        C698   1.404       .  A
C693        F711   1.358       .  S
C694        C699   1.492       .  S
C694        C695   1.405       .  A
C695        C696   1.403       .  A
C695        F700   1.358       .  S
C696        C697   1.414       .  A
C696        F712   1.358       .  S
C697        C698   1.411       .  A
C698        F701   1.358       .  S
C699        C702   1.408       .  A
C699        C706   1.402       .  A
C702        C703   1.406       .  A
C702        F707   1.357       .  S
C703        C704   1.411       .  A
C703        F709   1.358       .  S
C704        C705   1.418       .  A
C705        C706   1.401       .  A
C705        F708   1.358       .  S
C706        F710   1.358       .  S
C713        C714   1.408       .  A
C713        C718   1.405       .  A
C713        F731   1.358       .  S
C714        C719   1.487       .  S
C714        C715   1.402       .  A
C715        C716   1.398       .  A
C715        F720   1.358       .  S
C716        C717   1.413       .  A
C716        F732   1.358       .  S
C717        C718   1.410       .  A
C718        F721   1.358       .  S
C719        C722   1.401       .  A
C719        C726   1.406       .  A
C722        C723   1.399       .  A
C722        F727   1.358       .  S
C723        C724   1.416       .  A
C723        F729   1.358       .  S
C724        C725   1.412       .  A
C725        C726   1.404       .  A
C725        F728   1.357       .  S
C726        F730   1.358       .  S
C733        C734   1.405       .  A
C733        C738   1.399       .  A
C733        F751   1.358       .  S
C734        C739   1.481       .  S
C734        C735   1.405       .  A
C735        C736   1.397       .  A
C735        F740   1.358       .  S
C736        C737   1.408       .  A
C736        F752   1.358       .  S
C737        C738   1.408       .  A
C738        F741   1.358       .  S
C739        C742   1.404       .  A
C739        C746   1.404       .  A
C742        C743   1.398       .  A
C742        F747   1.358       .  S
C743        C744   1.411       .  A
C743        F749   1.358       .  S
C744        C745   1.412       .  A
C745        C746   1.398       .  A
C745        F748   1.358       .  S
C746        F750   1.358       .  S
C753        C754   1.408       .  A
C753        C758   1.404       .  A
C753        F771   1.358       .  S
C754        C759   1.492       .  S
C754        C755   1.405       .  A
C755        C756   1.399       .  A
C755        F760   1.358       .  S
C756        C757   1.414       .  A
C756        F772   1.358       .  S
C757        C758   1.411       .  A
C758        F761   1.358       .  S
C759        C762   1.404       .  A
C759        C766   1.409       .  A
C762        C763   1.398       .  A
C762        F767   1.358       .  S
C763        C764   1.416       .  A
C763        F769   1.358       .  S
C764        C765   1.411       .  A
C765        C766   1.405       .  A
C765        F768   1.357       .  S
C766        F770   1.358       .  S
C773        C774   1.411       .  A
C773        C778   1.403       .  A
C773        F791   1.358       .  S
C774        C779   1.498       .  S
C774        C775   1.410       .  A
C775        C776   1.404       .  A
C775        F780   1.358       .  S
C776        C777   1.407       .  A
C776        F792   1.358       .  S
C777        C778   1.405       .  A
C778        F781   1.358       .  S
C779        C782   1.409       .  A
C779        C786   1.412       .  A
C782        C783   1.402       .  A
C782        F787   1.358       .  S
C783        C784   1.409       .  A
C783        F789   1.358       .  S
C784        C785   1.407       .  A
C785        C786   1.404       .  A
C785        F788   1.358       .  S
C786        F790   1.358       .  S
C793        C794   1.405       .  A
C793        C798   1.402       .  A
C793        F811   1.358       .  S
C794        C799   1.484   1_655  S
C794        C795   1.404       .  A
C795        C796   1.400       .  A
C795        F800   1.358       .  S
C796        C797   1.412       .  A
C796        F812   1.358       .  S
C797        C798   1.411       .  A
C798        F801   1.358       .  S
C799        C802   1.406       .  A
C799        C806   1.405       .  A
C802        C803   1.401       .  A
C802        F807   1.358       .  S
C803        C804   1.408       .  A
C803        F809   1.358       .  S
C804        C805   1.409       .  A
C805        C806   1.399       .  A
C805        F808   1.358       .  S
C806        F810   1.358       .  S
C813        C814   1.407       .  A
C813        C818   1.407       .  A
C813        F831   1.357       .  S
C814        C819   1.483   1_566  S
C814        C815   1.404       .  A
C815        C816   1.397       .  A
C815        F820   1.358       .  S
C816        C817   1.405       .  A
C816        F832   1.359       .  S
C817        C818   1.405       .  A
C818        F821   1.357       .  S
C819        C822   1.403   1_554  A
C819        C826   1.405       .  A
C822        C823   1.402       .  A
C822        F827   1.358       .  S
C823        C824   1.412   1_556  A
C823        F829   1.358       .  S
C824        C825   1.408       .  A
C825        C826   1.402       .  A
C825        F828   1.357       .  S
C826        F830   1.358   1_545  S
C833        C834   1.402       .  A
C833        C838   1.397       .  A
C833        F851   1.358       .  S
C834        C839   1.487       .  S
C834        C835   1.407       .  A
C835        C836   1.405       .  A
C835        F840   1.358       .  S
C836        C837   1.412       .  A
C836        F852   1.358       .  S
C837        C838   1.414       .  A
C838        F841   1.358       .  S
C839        C842   1.406       .  A
C839        C846   1.407       .  A
C842        C843   1.399       .  A
C842        F847   1.358       .  S
C843        C844   1.408       .  A
C843        F849   1.358       .  S
C844        C845   1.408       .  A
C845        C846   1.404       .  A
C845        F848   1.358       .  S
C846        F850   1.358       .  S
C853        C854   1.404       .  A
C853        C858   1.400       .  A
C853        F871   1.358       .  S
C854        C859   1.489       .  S
C854        C855   1.407       .  A
C855        C856   1.403       .  A
C855        F860   1.358       .  S
C856        C857   1.412       .  A
C856        F872   1.358       .  S
C857        C858   1.413       .  A
C858        F861   1.358       .  S
C859        C862   1.402       .  A
C859        C866   1.408       .  A
C862        C863   1.399       .  A
C862        F867   1.358       .  S
C863        C864   1.416       .  A
C863        F869   1.358       .  S
C864        C865   1.411       .  A
C865        C866   1.403       .  A
C865        F868   1.358       .  S
C866        F870   1.358       .  S
C873        C874   1.403   1_554  A
C873        C878   1.399   1_554  A
C873        F891   1.358       .  S
C874        C879   1.489   1_566  S
C874        C875   1.408       .  A
C875        C876   1.404       .  A
C875        F880   1.358   1_565  S
C876        C877   1.410       .  A
C876        F892   1.357       .  S
C877        C878   1.414       .  A
C878        F881   1.358   1_556  S
C879        C882   1.404   1_554  A
C879        C886   1.408       .  A
C882        C883   1.397   1_556  A
C882        F887   1.358       .  S
C883        C884   1.412       .  A
C883        F889   1.358   1_554  S
C884        C885   1.408       .  A
C885        C886   1.405       .  A
C885        F888   1.357       .  S
C886        F890   1.357       .  S
C893        C894   1.401       .  A
C893        C898   1.399       .  A
C893        F911   1.358       .  S
C894        C899   1.487       .  S
C894        C895   1.407       .  A
C895        C896   1.404       .  A
C895        F900   1.358       .  S
C896        C897   1.411       .  A
C896        F912   1.357       .  S
C897        C898   1.417       .  A
C898        F901   1.358       .  S
C899        C902   1.404       .  A
C899        C906   1.405       .  A
C902        C903   1.401       .  A
C902        F907   1.358       .  S
C903        C904   1.411       .  A
C903        F909   1.358       .  S
C904        C905   1.414       .  A
C905        C906   1.402       .  A
C905        F908   1.358       .  S
C906        F910   1.358       .  S
C913        C914   1.403       .  A
C913        C918   1.402       .  A
C913        F931   1.358       .  S
C914        C919   1.488       .  S
C914        C915   1.405       .  A
C915        C916   1.404       .  A
C915        F920   1.358       .  S
C916        C917   1.413       .  A
C916        F932   1.358       .  S
C917        C918   1.413       .  A
C918        F921   1.358       .  S
C919        C922   1.406       .  A
C919        C926   1.401       .  A
C922        C923   1.406       .  A
C922        F927   1.358       .  S
C923        C924   1.413       .  A
C923        F929   1.358       .  S
C924        C925   1.417       .  A
C925        C926   1.400       .  A
C925        F928   1.358       .  S
C926        F930   1.358       .  S
C933        C934   1.404       .  A
C933        C938   1.400       .  A
C933        F951   1.358       .  S
C934        C939   1.479   1_455  S
C934        C935   1.404       .  A
C935        C936   1.399       .  A
C935        F940   1.358       .  S
C936        C937   1.409       .  A
C936        F952   1.358       .  S
C937        C938   1.408       .  A
C938        F941   1.358       .  S
C939        C942   1.404       .  A
C939        C946   1.403       .  A
C942        C943   1.401       .  A
C942        F947   1.358       .  S
C943        C944   1.410       .  A
C943        F949   1.358       .  S
C944        C945   1.409       .  A
C945        C946   1.397       .  A
C945        F948   1.358       .  S
C946        F950   1.358       .  S
C953        C954   1.402   1_556  A
C953        C958   1.397   1_556  A
C953        F971   1.358       .  S
C954        C959   1.484   1_554  S
C954        C955   1.405       .  A
C955        C956   1.403       .  A
C955        F960   1.358       .  S
C956        C957   1.413       .  A
C956        F972   1.357       .  S
C957        C958   1.415       .  A
C958        F961   1.358   1_554  S
C959        C962   1.406       .  A
C959        C966   1.402   1_556  A
C962        C963   1.403       .  A
C962        F967   1.358       .  S
C963        C964   1.411       .  A
C963        F969   1.357       .  S
C964        C965   1.416   1_556  A
C965        C966   1.397       .  A
C965        F968   1.358       .  S
C966        F970   1.358       .  S
C973        C974   1.398       .  A
C973        C978   1.388   1_554  A
C973        F991   1.359       .  S
C974        C979   1.471       .  S
C974        C975   1.407   1_554  A
C975        C976   1.400       .  A
C975        F980   1.358       .  S
C976        C977   1.406       .  A
C976        F992   1.358       .  S
C977        C978   1.412       .  A
C978        F981   1.359       .  S
C979        C982   1.402       .  A
C979        C986   1.405       .  A
C982        C983   1.395       .  A
C982        F987   1.358       .  S
C983        C984   1.408       .  A
C983        F989   1.358       .  S
C984        C985   1.405       .  A
C985        C986   1.393       .  A
C985        F988   1.358       .  S
C986        F990   1.358   1_554  S
C993        C994   1.407       .  A
C993        C998   1.399       .  A
C993       F1011   1.358       .  S
C994        C999   1.489       .  S
C994        C995   1.408       .  A
C995        C996   1.402       .  A
C995       F1000   1.358       .  S
C996        C997   1.407       .  A
C996       F1012   1.358       .  S
C997        C998   1.409       .  A
C998       F1001   1.358       .  S
C999       C1002   1.409       .  A
C999       C1006   1.407       .  A
C1002      C1003   1.403       .  A
C1002      F1007   1.358       .  S
C1003      C1004   1.406       .  A
C1003      F1009   1.358       .  S
C1004      C1005   1.407       .  A
C1005      C1006   1.398       .  A
C1005      F1008   1.358       .  S
C1006      F1010   1.358       .  S
C1013      C1014   1.403       .  A
C1013      C1018   1.394       .  A
C1013      F1031   1.358   1_556  S
C1014      C1019   1.485       .  S
C1014      C1015   1.408       .  A
C1015      C1016   1.407       .  A
C1015      F1020   1.357       .  S
C1016      C1017   1.408       .  A
C1016      F1032   1.358       .  S
C1017      C1018   1.409       .  A
C1018      F1021   1.358       .  S
C1019      C1022   1.402       .  A
C1019      C1026   1.406   1_556  A
C1022      C1023   1.401       .  A
C1022      F1027   1.358       .  S
C1023      C1024   1.416   1_556  A
C1023      F1029   1.358       .  S
C1024      C1025   1.409       .  A
C1025      C1026   1.401       .  A
C1025      F1028   1.357       .  S
C1026      F1030   1.358       .  S
C1033      C1034   1.407       .  A
C1033      C1038   1.401       .  A
C1033      F1051   1.358       .  S
C1034      C1039   1.474       .  S
C1034      C1035   1.399       .  A
C1035      C1036   1.387       .  A
C1035      F1040   1.359       .  S
C1036      C1037   1.415       .  A
C1036      F1052   1.358       .  S
C1037      C1038   1.408       .  A
C1038      F1041   1.357       .  S
C1039      C1042   1.405   1_556  A
C1039      C1046   1.405       .  A
C1042      C1043   1.396       .  A
C1042      F1047   1.358       .  S
C1043      C1044   1.406       .  A
C1043      F1049   1.358       .  S
C1044      C1045   1.404       .  A
C1045      C1046   1.391   1_554  A
C1045      F1048   1.358   1_554  S
C1046      F1050   1.358       .  S
C1053      C1054   1.406       .  A
C1053      C1058   1.403       .  A
C1053      F1071   1.358       .  S
C1054      C1059   1.490       .  S
C1054      C1055   1.404       .  A
C1055      C1056   1.400       .  A
C1055      F1060   1.358       .  S
C1056      C1057   1.416       .  A
C1056      F1072   1.358       .  S
C1057      C1058   1.412       .  A
C1058      F1061   1.357       .  S
C1059      C1062   1.405       .  A
C1059      C1066   1.407       .  A
C1062      C1063   1.400       .  A
C1062      F1067   1.358       .  S
C1063      C1064   1.412       .  A
C1063      F1069   1.358       .  S
C1064      C1065   1.410       .  A
C1065      C1066   1.404       .  A
C1065      F1068   1.358       .  S
C1066      F1070   1.358       .  S
C1073      C1074   1.404       .  A
C1073      C1078   1.400       .  A
C1073      F1091   1.358       .  S
C1074      C1079   1.482       .  S
C1074      C1075   1.403       .  A
C1075      C1076   1.399       .  A
C1075      F1080   1.358       .  S
C1076      C1077   1.413       .  A
C1076      F1092   1.358       .  S
C1077      C1078   1.411       .  A
C1078      F1081   1.358       .  S
C1079      C1082   1.405       .  A
C1079      C1086   1.405       .  A
C1082      C1083   1.400       .  A
C1082      F1087   1.358       .  S
C1083      C1084   1.407       .  A
C1083      F1089   1.358       .  S
C1084      C1085   1.409       .  A
C1085      C1086   1.399       .  A
C1085      F1088   1.358       .  S
C1086      F1090   1.358       .  S
C1093      C1094   1.410       .  A
C1093      C1098   1.409       .  A
C1093      F1111   1.357       .  S
C1094      C1099   1.492   1_565  S
C1094      C1095   1.404       .  A
C1095      C1096   1.397       .  A
C1095      F1100   1.358       .  S
C1096      C1097   1.410       .  A
C1096      F1112   1.358       .  S
C1097      C1098   1.409       .  A
C1098      F1101   1.358       .  S
C1099      C1102   1.404       .  A
C1099      C1106   1.409       .  A
C1102      C1103   1.402       .  A
C1102      F1107   1.358       .  S
C1103      C1104   1.415       .  A
C1103      F1109   1.358       .  S
C1104      C1105   1.410       .  A
C1105      C1106   1.405       .  A
C1105      F1108   1.357       .  S
C1106      F1110   1.358   1_545  S
C1113      C1114   1.409       .  A
C1113      C1118   1.397       .  A
C1113      F1131   1.358       .  S
C1114      C1119   1.483       .  S
C1114      C1115   1.407       .  A
C1115      C1116   1.397       .  A
C1115      F1120   1.358       .  S
C1116      C1117   1.405       .  A
C1116      F1132   1.358       .  S
C1117      C1118   1.404       .  A
C1118      F1121   1.358       .  S
C1119      C1122   1.410       .  A
C1119      C1126   1.400       .  A
C1122      C1123   1.404       .  A
C1122      F1127   1.358       .  S
C1123      C1124   1.410       .  A
C1123      F1129   1.358       .  S
C1124      C1125   1.416       .  A
C1125      C1126   1.389       .  A
C1125      F1128   1.358       .  S
C1126      F1130   1.358       .  S
C1133      C1134   1.412       .  A
C1133      C1138   1.405       .  A
C1133      F1151   1.358       .  S
C1134      C1139   1.499       .  S
C1134      C1135   1.409       .  A
C1135      C1136   1.402       .  A
C1135      F1140   1.358       .  S
C1136      C1137   1.410       .  A
C1136      F1152   1.358       .  S
C1137      C1138   1.407       .  A
C1138      F1141   1.357       .  S
C1139      C1142   1.408       .  A
C1139      C1146   1.412       .  A
C1142      C1143   1.399       .  A
C1142      F1147   1.358       .  S
C1143      C1144   1.408       .  A
C1143      F1149   1.357       .  S
C1144      C1145   1.408       .  A
C1145      C1146   1.407       .  A
C1145      F1148   1.358       .  S
C1146      F1150   1.358       .  S
C1153      C1154   1.399       .  A
C1153      C1158   1.398       .  A
C1153      F1171   1.358       .  S
C1154      C1159   1.481       .  S
C1154      C1155   1.405       .  A
C1155      C1156   1.405       .  A
C1155      F1160   1.358       .  S
C1156      C1157   1.411       .  A
C1156      F1172   1.357       .  S
C1157      C1158   1.416       .  A
C1158      F1161   1.358       .  S
C1159      C1162   1.403       .  A
C1159      C1166   1.401       .  A
C1162      C1163   1.402       .  A
C1162      F1167   1.358       .  S
C1163      C1164   1.414       .  A
C1163      F1169   1.358       .  S
C1164      C1165   1.414       .  A
C1165      C1166   1.399       .  A
C1165      F1168   1.358       .  S
C1166      F1170   1.358       .  S
C1173      C1174   1.404       .  A
C1173      C1178   1.399       .  A
C1173      F1191   1.358       .  S
C1174      C1179   1.491       .  S
C1174      C1175   1.409       .  A
C1175      C1176   1.403       .  A
C1175      F1180   1.358       .  S
C1176      C1177   1.411       .  A
C1176      F1192   1.358       .  S
C1177      C1178   1.415       .  A
C1178      F1181   1.358       .  S
C1179      C1182   1.403       .  A
C1179      C1186   1.411       .  A
C1182      C1183   1.396       .  A
C1182      F1187   1.358       .  S
C1183      C1184   1.413       .  A
C1183      F1189   1.358       .  S
C1184      C1185   1.408       .  A
C1185      C1186   1.405       .  A
C1185      F1188   1.358       .  S
C1186      F1190   1.358       .  S
C1193      C1194   1.408       .  A
C1193      C1198   1.404       .  A
C1193      F1211   1.358   1_565  S
C1194      C1199   1.488   1_565  S
C1194      C1195   1.402       .  A
C1195      C1196   1.400       .  A
C1195      F1200   1.358       .  S
C1196      C1197   1.416       .  A
C1196      F1212   1.358       .  S
C1197      C1198   1.411       .  A
C1198      F1201   1.357       .  S
C1199      C1202   1.409       .  A
C1199      C1206   1.402       .  A
C1202      C1203   1.409       .  A
C1202      F1207   1.357       .  S
C1203      C1204   1.409       .  A
C1203      F1209   1.357       .  S
C1204      C1205   1.413       .  A
C1205      C1206   1.395       .  A
C1205      F1208   1.358       .  S
C1206      F1210   1.359       .  S
C1213      C1214   1.403       .  A
C1213      C1218   1.399       .  A
C1213      F1231   1.358       .  S
C1214      C1219   1.481       .  S
C1214      C1215   1.404       .  A
C1215      C1216   1.403       .  A
C1215      F1220   1.358       .  S
C1216      C1217   1.411       .  A
C1216      F1232   1.358       .  S
C1217      C1218   1.411       .  A
C1218      F1221   1.358       .  S
C1219      C1222   1.405       .  A
C1219      C1226   1.398       .  A
C1222      C1223   1.405       .  A
C1222      F1227   1.357       .  S
C1223      C1224   1.412       .  A
C1223      F1229   1.357       .  S
C1224      C1225   1.418       .  A
C1225      C1226   1.397       .  A
C1225      F1228   1.358       .  S
C1226      F1230   1.358       .  S
C1233      C1234   1.408       .  A
C1233      C1238   1.408       .  A
C1233      F1251   1.358       .  S
C1234      C1239   1.488       .  S
C1234      C1235   1.399       .  A
C1235      C1236   1.397       .  A
C1235      F1240   1.358       .  S
C1236      C1237   1.417       .  A
C1236      F1252   1.358       .  S
C1237      C1238   1.412       .  A
C1238      F1241   1.358       .  S
C1239      C1242   1.402       .  A
C1239      C1246   1.406       .  A
C1242      C1243   1.401       .  A
C1242      F1247   1.358       .  S
C1243      C1244   1.416       .  A
C1243      F1249   1.358       .  S
C1244      C1245   1.411       .  A
C1245      C1246   1.404       .  A
C1245      F1248   1.357       .  S
C1246      F1250   1.358       .  S
C1253      C1254   1.407       .  A
C1253      C1258   1.401       .  A
C1253      F1271   1.358       .  S
C1254      C1259   1.488       .  S
C1254      C1255   1.406       .  A
C1255      C1256   1.399       .  A
C1255      F1260   1.358       .  S
C1256      C1257   1.410       .  A
C1256      F1272   1.358       .  S
C1257      C1258   1.409       .  A
C1258      F1261   1.358       .  S
C1259      C1262   1.407       .  A
C1259      C1266   1.406       .  A
C1262      C1263   1.402       .  A
C1262      F1267   1.358       .  S
C1263      C1264   1.410       .  A
C1263      F1269   1.358       .  S
C1264      C1265   1.410       .  A
C1265      C1266   1.401       .  A
C1265      F1268   1.358       .  S
C1266      F1270   1.358       .  S
C1273      C1274   1.398       .  A
C1273      C1278   1.387       .  A
C1273      F1291   1.358       .  S
C1274      C1279   1.469       .  S
C1274      C1275   1.407       .  A
C1275      C1276   1.401       .  A
C1275      F1280   1.358       .  S
C1276      C1277   1.404       .  A
C1276      F1292   1.358       .  S
C1277      C1278   1.409       .  A
C1278      F1281   1.359       .  S
C1279      C1282   1.403       .  A
C1279      C1286   1.401       .  A
C1282      C1283   1.393       .  A
C1282      F1287   1.358       .  S
C1283      C1284   1.406       .  A
C1283      F1289   1.358       .  S
C1284      C1285   1.411       .  A
C1285      C1286   1.396       .  A
C1285      F1288   1.359       .  S
C1286      F1290   1.358       .  S
C1293      C1294   1.403       .  A
C1293      C1298   1.399       .  A
C1293      F1311   1.358       .  S
C1294      C1299   1.489       .  S
C1294      C1295   1.407       .  A
C1295      C1296   1.407       .  A
C1295      F1300   1.358       .  S
C1296      C1297   1.411       .  A
C1296      F1312   1.357       .  S
C1297      C1298   1.413       .  A
C1298      F1301   1.358       .  S
C1299      C1302   1.406       .  A
C1299      C1306   1.403       .  A
C1302      C1303   1.405       .  A
C1302      F1307   1.358       .  S
C1303      C1304   1.413       .  A
C1303      F1309   1.358       .  S
C1304      C1305   1.414       .  A
C1305      C1306   1.401       .  A
C1305      F1308   1.358       .  S
C1306      F1310   1.358       .  S
