geometry optimzed in LAMMPS
_audit_creation_date              2020-12-01 
_audit_creation_method            'lammps2cif' 
_symmetry_space_group_name_H-M    'P1' 
_symmetry_Int_Tables_number       1 
_symmetry_cell_setting            triclinic 
loop_ 
_symmetry_equiv_pos_as_xyz 
  x,y,z 
_cell_length_a                    37.40730543 
_cell_length_b                    45.00434575119118 
_cell_length_c                    46.162321774932934 
_cell_angle_alpha                 90.00058946583344 
_cell_angle_beta                  89.99940490353627 
_cell_angle_gamma                 90.00041686929853 
loop_ 
_atom_site_label 
_atom_site_type_symbol 
_atom_site_fract_x 
_atom_site_fract_y 
_atom_site_fract_z 
_atom_site_charge 
O1          O  0.89816845  0.46198618  0.37557575    -0.83800
O2          O  0.84753021  0.46193365  0.33181947    -0.80900
C3          C  0.81875164  0.45570145  0.31891490     0.99600
O4          O  0.79001378  0.45096976  0.33280272    -0.80900
O5          O  0.79708507  0.39637647  0.35868017    -0.83500
C6          C  0.80927735  0.37671426  0.37531670     1.04200
O7          O  0.82730215  0.38358931  0.39745880    -0.76300
O8          O  0.88925927  0.41440689  0.38242943    -0.76500
C9          C  0.90955252  0.43552805  0.37542267     1.04100
O10         O  0.84863050  0.49459018  0.41134633    -0.83800
O11         O  0.80307085  0.50074336  0.36453575    -0.80900
C12         C  0.77270006  0.49835169  0.37616423     0.99700
O13         O  0.76295281  0.47415084  0.38723178    -0.80900
O14         O  0.76720422  0.41805998  0.41167177    -0.83500
C15         C  0.78141505  0.41936342  0.43655151     1.04100
O16         O  0.81315369  0.42767506  0.43987180    -0.76300
O17         O  0.87595792  0.45555001  0.42928395    -0.76500
C18         C  0.86514843  0.48204823  0.43177661     1.04100
Cr19       Cr  0.84784404  0.47736933  0.37184125     1.93700
Cr20       Cr  0.78271576  0.43577515  0.37350332     1.93200
Cr21       Cr  0.84978517  0.42198231  0.41004189     1.39100
O22         O  0.82666986  0.44479981  0.38497115    -1.21600
O23         O  0.89816260  0.06706966  0.61723221    -0.83800
O24         O  0.84752142  0.06713954  0.66098795    -0.80900
C25         C  0.81874344  0.07337793  0.67389086     0.99600
O26         O  0.79001066  0.07812626  0.66000159    -0.80900
O27         O  0.79710049  0.13271710  0.63411616    -0.83500
C28         C  0.80929911  0.15237476  0.61747680     1.04200
O29         O  0.82733490  0.14549203  0.59534228    -0.76300
O30         O  0.88927637  0.11465228  0.61038362    -0.76500
C31         C  0.90956013  0.09352384  0.61738678     1.04100
O32         O  0.84860979  0.03448114  0.58146323    -0.83800
O33         O  0.80304770  0.02834318  0.62827521    -0.80900
C34         C  0.77267794  0.03074122  0.61664740     0.99700
O35         O  0.76294130  0.05494361  0.60557627    -0.80900
O36         O  0.76722494  0.11103350  0.58112595    -0.83500
C37         C  0.78144482  0.10973352  0.55624903     1.04100
O38         O  0.81317836  0.10140772  0.55293251    -0.76300
O39         O  0.87596335  0.07351039  0.56352789    -0.76500
C40         C  0.86514048  0.04701548  0.56103511     1.04100
Cr41       Cr  0.84783038  0.05170364  0.62096715     1.93700
Cr42       Cr  0.78272079  0.09331785  0.61929859     1.93200
Cr43       Cr  0.84980444  0.10708914  0.58276639     1.39100
O44         O  0.82667286  0.08427975  0.60783527    -1.21600
O45         O  0.14822871  0.46187160  0.33184536    -0.83800
O46         O  0.09756372  0.46191808  0.37558936    -0.80900
C47         C  0.08617683  0.43546158  0.37542958     0.99600
O48         O  0.10646690  0.41433747  0.38243359    -0.80900
O49         O  0.16842223  0.38351781  0.39747179    -0.83500
C50         C  0.18647391  0.37665177  0.37534072     1.04200
O51         O  0.19868457  0.39632080  0.35871972    -0.76300
O52         O  0.20574894  0.45092391  0.33285891    -0.76500
C53         C  0.17702263  0.45565195  0.31895571     1.04100
O54         O  0.19265842  0.50068547  0.36458207    -0.83800
O55         O  0.14707358  0.49451641  0.41137775    -0.80900
C56         C  0.13054438  0.48197032  0.43180024     0.99700
O57         O  0.11974707  0.45546829  0.42930475    -0.80900
O58         O  0.18254083  0.42758774  0.43990767    -0.83500
C59         C  0.21428526  0.41928724  0.43659873     1.04100
O60         O  0.22851635  0.41800134  0.41172618    -0.76300
O61         O  0.23276247  0.47410204  0.38730153    -0.76500
C62         C  0.22302142  0.49829994  0.37622418     1.04100
Cr63       Cr  0.14788692  0.47730243  0.37187098     1.93700
Cr64       Cr  0.14592915  0.42190574  0.41006061     1.93200
Cr65       Cr  0.21302433  0.43572214  0.37355724     1.39100
O66         O  0.16905825  0.44473323  0.38500541    -1.21600
O67         O  0.14822500  0.06709985  0.66098291    -0.83800
O68         O  0.09756709  0.06705778  0.61723383    -0.80900
C69         C  0.08618890  0.09351711  0.61737543     0.99600
O70         O  0.10648741  0.11463293  0.61036246    -0.80900
O71         O  0.16846064  0.14542968  0.59533985    -0.83500
C72         C  0.18648973  0.15229685  0.61748253     1.04200
O73         O  0.19868842  0.13262889  0.63411008    -0.76300
O74         O  0.20574959  0.07802806  0.65997465    -0.76500
C75         C  0.17701907  0.07331174  0.67387532     1.04100
O76         O  0.19264904  0.02827006  0.62825443    -0.83800
O77         O  0.14706736  0.03443329  0.58145814    -0.80900
C78         C  0.13055079  0.04697757  0.56102834     0.99700
O79         O  0.11977096  0.07348531  0.56351057    -0.80900
O80         O  0.18258729  0.10134152  0.55291804    -0.83500
C81         C  0.21432854  0.10964739  0.55623476     1.04100
O82         O  0.22854344  0.11094593  0.58111226    -0.76300
O83         O  0.23276767  0.05484580  0.60553957    -0.76500
C84         C  0.22301736  0.03065121  0.61661885     1.04100
Cr85       Cr  0.14788375  0.05165968  0.62096006     1.93700
Cr86       Cr  0.14596080  0.10704458  0.58275146     1.93200
Cr87       Cr  0.21303358  0.09322766  0.61927753     1.39100
O88         O  0.16906974  0.08421992  0.60782039    -1.21600
O89         O  0.39816925  0.21194941  0.37558285    -0.83800
O90         O  0.34752840  0.21187471  0.33182838    -0.80900
C91         C  0.31875053  0.20563387  0.31892658     0.99600
O92         O  0.29001652  0.20089170  0.33281697    -0.80900
O93         O  0.29710042  0.14630274  0.35870461    -0.83500
C94         C  0.30930129  0.12664531  0.37534259     1.04200
O95         O  0.32734027  0.13352777  0.39747529    -0.76300
O96         O  0.38928199  0.16436700  0.38243133    -0.76500
C97         C  0.40956582  0.18549526  0.37542660     1.04100
O98         O  0.34861709  0.24453890  0.41135088    -0.83800
O99         O  0.30305621  0.25067561  0.36453923    -0.80900
C100        C  0.27268895  0.24828038  0.37617229     0.99700
O101        O  0.26295139  0.22407876  0.38724448    -0.80900
O102        O  0.26722880  0.16799052  0.41169531    -0.83500
C103        C  0.28144972  0.16929038  0.43657162     1.04100
O104        O  0.31318566  0.17761104  0.43988634    -0.76300
O105        O  0.37596954  0.20550996  0.42928740    -0.76500
C106        C  0.36514606  0.23200472  0.43177972     1.04100
Cr107      Cr  0.34783759  0.22731455  0.37184790     1.93700
Cr108      Cr  0.28272569  0.18570318  0.37352142     1.93200
Cr109      Cr  0.34981074  0.17193025  0.41005039     1.39100
O110        O  0.32667896  0.19473949  0.38498224    -1.21600
O111        O  0.39815640  0.31702987  0.61724040    -0.83800
O112        O  0.34751562  0.31708183  0.66099711    -0.80900
C113        C  0.31873655  0.32331302  0.67390187     0.99600
O114        O  0.29000047  0.32804972  0.66001409    -0.80900
O115        O  0.29708000  0.38264368  0.63413757    -0.83500
C116        C  0.30927255  0.40230556  0.61750041     1.04200
O117        O  0.32729606  0.39542970  0.59535751    -0.76300
O118        O  0.38925130  0.36460950  0.61038551    -0.76500
C119        C  0.40954342  0.34348742  0.61739078     1.04100
O120        O  0.34861705  0.28442795  0.58146901    -0.83800
O121        O  0.30305448  0.27827625  0.62827921    -0.80900
C122        C  0.27268211  0.28067066  0.61665441     0.99700
O123        O  0.26293716  0.30487195  0.60558664    -0.80900
O124        O  0.26719724  0.36096357  0.58114643    -0.83500
C125        C  0.28140811  0.35965977  0.55626661     1.04100
O126        O  0.31314481  0.35134357  0.55294545    -0.76300
O127        O  0.37594764  0.32346730  0.56353199    -0.76500
C128        C  0.36513718  0.29696931  0.56103920     1.04100
Cr129      Cr  0.34783020  0.30164818  0.62097453     1.93700
Cr130      Cr  0.28270569  0.34324624  0.61931421     1.93200
Cr131      Cr  0.34977648  0.35703547  0.58277433     1.39100
O132        O  0.32665905  0.33421890  0.60784547    -1.21600
O133        O  0.64823486  0.21191404  0.33183292    -0.83800
O134        O  0.59757255  0.21196370  0.37557971    -0.80900
C135        C  0.58619283  0.18550484  0.37543664     0.99600
O136        O  0.60648921  0.16438852  0.38245113    -0.80900
O137        O  0.66845919  0.13358930  0.39747857    -0.83500
C138        C  0.68649578  0.12672165  0.37533976     1.04200
O139        O  0.69869844  0.14638891  0.35871304    -0.76300
O140        O  0.70575968  0.20098753  0.33284521    -0.76500
C141        C  0.67703010  0.20570049  0.31894265     1.04100
O142        O  0.69265714  0.25074683  0.36455918    -0.83800
O143        O  0.64707268  0.24458757  0.41135468    -0.80900
C144        C  0.63055447  0.23204469  0.43178489     0.99700
O145        O  0.61977255  0.20553716  0.42930371    -0.80900
O146        O  0.68258323  0.17767620  0.43990126    -0.83500
C147        C  0.71432704  0.16937585  0.43658703     1.04100
O148        O  0.72854539  0.16807730  0.41171080    -0.76300
O149        O  0.73277042  0.22417453  0.38728197    -0.76500
C150        C  0.72302229  0.24836785  0.37619970     1.04100
Cr151      Cr  0.64789077  0.22735857  0.37185412     1.93700
Cr152      Cr  0.64596034  0.17197537  0.41006484     1.93200
Cr153      Cr  0.71303955  0.18579157  0.37354396     1.39100
O154        O  0.66907402  0.19479889  0.38499721    -1.21600
O155        O  0.64822068  0.31714284  0.66096997    -0.83800
O156        O  0.59755937  0.31710200  0.61722349    -0.80900
C157        C  0.58617243  0.34355847  0.61738240     0.99600
O158        O  0.60646400  0.36468304  0.61038147    -0.80900
O159        O  0.66842200  0.39550305  0.59534860    -0.83500
C160        C  0.68646928  0.40236791  0.61748216     1.04200
O161        O  0.69867769  0.38269781  0.63410263    -0.76300
O162        O  0.70574060  0.32809295  0.65996026    -0.76500
C163        C  0.67701313  0.32336205  0.67386168     1.04100
O164        O  0.69265273  0.27833232  0.62823117    -0.83800
O165        O  0.64707112  0.28450577  0.58143433    -0.80900
C166        C  0.63054337  0.29705347  0.56101231     0.99700
O167        O  0.61974718  0.32355539  0.56350921    -0.80900
O168        O  0.68254399  0.35143487  0.55291125    -0.83500
C169        C  0.71428691  0.35973863  0.55622210     1.04100
O170        O  0.72851580  0.36102242  0.58109561    -0.76300
O171        O  0.73276129  0.30491890  0.60551870    -0.76500
C172        C  0.72301869  0.28071991  0.61659362     1.04100
Cr173      Cr  0.64788197  0.30171630  0.62094262     1.93700
Cr174      Cr  0.64592925  0.35711591  0.58275653     1.93200
Cr175      Cr  0.71302015  0.34329786  0.61926319     1.39100
O176        O  0.66905525  0.33428666  0.60781176    -1.21600
O177        O  0.84772444  0.46189657  0.16096458    -0.83800
O178        O  0.89837547  0.46192917  0.11720957    -0.80900
C179        C  0.90975441  0.43547016  0.11736187     0.99600
O180        O  0.88945720  0.41435106  0.11035586    -0.80900
O181        O  0.82748622  0.38354457  0.09534124    -0.83500
C182        C  0.80945475  0.37668132  0.11748383     1.04200
O183        O  0.79725871  0.39635265  0.13410959    -0.76300
O184        O  0.79020178  0.45095938  0.15996522    -0.76500
C185        C  0.81893367  0.45568246  0.17386144     1.04100
O186        O  0.80329239  0.50071455  0.12823233    -0.83800
O187        O  0.84886698  0.49453883  0.08142995    -0.80900
C188        C  0.86538471  0.48198957  0.06100298     0.99700
O189        O  0.87616751  0.45548338  0.06349221    -0.80900
O190        O  0.81335333  0.42761834  0.05291102    -0.83500
C191        C  0.78161267  0.41931235  0.05623248     1.04100
O192        O  0.76739819  0.41802462  0.08111108    -0.76300
O193        O  0.76317017  0.47413080  0.10553106    -0.76500
C194        C  0.77292036  0.49832859  0.11660461     1.04100
Cr195      Cr  0.84805786  0.47732483  0.12093716     1.93700
Cr196      Cr  0.84998220  0.42192801  0.08274391     1.93200
Cr197      Cr  0.78291109  0.43575165  0.11927189     1.39100
O198        O  0.82687276  0.44475908  0.10780819    -1.21600
O199        O  0.84769320  0.06711641  0.83182826    -0.83800
O200        O  0.89836597  0.06706351  0.87556533    -0.80900
C201        C  0.90975255  0.09352019  0.87541485     0.99600
O202        O  0.88946181  0.11464189  0.88242520    -0.80900
O203        O  0.82750472  0.14545369  0.89747235    -0.83500
C204        C  0.80945385  0.15232228  0.87534196     1.04200
O205        O  0.79724034  0.13265559  0.85871961    -0.76300
O206        O  0.79017150  0.07805688  0.83285072    -0.76500
C207        C  0.81889638  0.07333462  0.81894319     1.04100
O208        O  0.80327180  0.02829359  0.86456317    -0.83800
O209        O  0.84886497  0.03445397  0.91135197    -0.80900
C210        C  0.86539466  0.04699633  0.93177620     0.99700
O211        O  0.87618867  0.07349982  0.92928676    -0.80900
O212        O  0.81339333  0.10137311  0.93990110    -0.83500
C213        C  0.78164789  0.10967237  0.93659721     1.04100
O214        O  0.76741553  0.11096695  0.91172591    -0.76300
O215        O  0.76317160  0.05487125  0.88729498    -0.76500
C216        C  0.77291251  0.03067548  0.87621308     1.04100
Cr217      Cr  0.84804341  0.05167692  0.87184980     1.93700
Cr218      Cr  0.85000177  0.10706489  0.91005254     1.93200
Cr219      Cr  0.78290342  0.09325282  0.87355270     1.39100
O220        O  0.82687188  0.08424191  0.88499402    -1.21600
O221        O  0.09777625  0.46192499  0.11725355    -0.83800
O222        O  0.14842551  0.46186515  0.16100240    -0.80900
C223        C  0.17720603  0.45562983  0.17390235     0.99600
O224        O  0.20593793  0.45088465  0.16000987    -0.80900
O225        O  0.19885275  0.39629161  0.13412907    -0.83500
C226        C  0.18664952  0.37663124  0.11749509     1.04200
O227        O  0.16861093  0.38350937  0.09536130    -0.76300
O228        O  0.10666868  0.41434261  0.11040812    -0.76500
C229        C  0.08638196  0.43546982  0.11740952     1.04100
O230        O  0.14731833  0.49451440  0.08147512    -0.83800
O231        O  0.19288747  0.50066316  0.12828057    -0.80900
C232        C  0.22325407  0.49826693  0.11664638     0.99700
O233        O  0.23299154  0.47406434  0.10557637    -0.80900
O234        O  0.22871455  0.41797458  0.08113153    -0.83500
C235        C  0.21449024  0.41927398  0.05625646     1.04100
O236        O  0.18275247  0.42759036  0.05294501    -0.76300
O237        O  0.11996581  0.45548081  0.06354775    -0.76500
C238        C  0.13078744  0.48197538  0.06104980     1.04100
Cr239      Cr  0.14810681  0.47729702  0.12098074     1.93700
Cr240      Cr  0.21322258  0.43569033  0.11930598     1.93200
Cr241      Cr  0.14613381  0.42190743  0.08278496     1.39100
O242        O  0.16926667  0.44472184  0.10784873    -1.21600
O243        O  0.09776658  0.06700022  0.87559514    -0.83800
O244        O  0.14839943  0.06706203  0.83183425    -0.80900
C245        C  0.17717552  0.07329857  0.81892757     0.99600
O246        O  0.20591355  0.07803411  0.83281294    -0.80900
O247        O  0.19883347  0.13262615  0.85869469    -0.83500
C248        C  0.18664451  0.15228599  0.87533633     1.04200
O249        O  0.16862159  0.14540667  0.89747858    -0.76300
O250        O  0.10666748  0.11458024  0.88245226    -0.76500
C251        C  0.08637828  0.09345705  0.87544326     1.04100
O252        O  0.14731425  0.03440026  0.91135877    -0.83800
O253        O  0.19287023  0.02825666  0.86454366    -0.80900
C254        C  0.22324350  0.03065169  0.87616672     0.99700
O255        O  0.23298854  0.05485342  0.88723490    -0.80900
O256        O  0.22872620  0.11094504  0.91167946    -0.83500
C257        C  0.21451909  0.10964158  0.93656054     1.04100
O258        O  0.18278463  0.10132006  0.93988537    -0.76300
O259        O  0.11998301  0.07343625  0.92930272    -0.76500
C260        C  0.13079445  0.04693810  0.93179095     1.04100
Cr261      Cr  0.14809360  0.05162422  0.87185520     1.93700
Cr262      Cr  0.21321373  0.09322796  0.87351278     1.93200
Cr263      Cr  0.14614693  0.10700887  0.91006029     1.39100
O264        O  0.16926334  0.08419586  0.88498544    -1.21600
O265        O  0.34770151  0.21184301  0.16098573    -0.83800
O266        O  0.39836980  0.21189906  0.11724435    -0.80900
C267        C  0.40975606  0.18544228  0.11738826     0.99600
O268        O  0.38946484  0.16432186  0.11037447    -0.80900
O269        O  0.32750508  0.13351282  0.09532882    -0.83500
C270        C  0.30946129  0.12663988  0.11746215     1.04200
O271        O  0.29725244  0.14630374  0.13409008    -0.76300
O272        O  0.29018065  0.20089915  0.15996726    -0.76500
C273        C  0.31890594  0.20562420  0.17387301     1.04100
O274        O  0.30327664  0.25066774  0.12825764    -0.83800
O275        O  0.34886699  0.24451498  0.08146523    -0.80900
C276        C  0.36539483  0.23197594  0.06103795     0.99700
O277        O  0.37618778  0.20547201  0.06352243    -0.80900
O278        O  0.31338784  0.17760242  0.05290997    -0.83500
C279        C  0.28164588  0.16929443  0.05621692     1.04100
O280        O  0.26741766  0.16799632  0.08108993    -0.76300
O281        O  0.26317173  0.22409039  0.10553020    -0.76500
C282        C  0.27291384  0.24828519  0.11661396     1.04100
Cr283      Cr  0.34804811  0.22728617  0.12096527     1.93700
Cr284      Cr  0.35000113  0.17190437  0.08275312     1.93200
Cr285      Cr  0.28290909  0.18570764  0.11926398     1.39100
O286        O  0.32687527  0.19472268  0.10781858    -1.21600
O287        O  0.34771013  0.31706339  0.83184798    -0.83800
O288        O  0.39836838  0.31702918  0.87559726    -0.80900
C289        C  0.40974930  0.34348750  0.87543863     0.99600
O290        O  0.38945380  0.36460863  0.88244168    -0.80900
O291        O  0.32748788  0.39542044  0.89746031    -0.83500
C292        C  0.30944657  0.40227992  0.87532228     1.04200
O293        O  0.29724277  0.38260628  0.85870305    -0.76300
O294        O  0.29018679  0.32799772  0.83285416    -0.76500
C295        C  0.31891760  0.32327866  0.81895463     1.04100
O296        O  0.30328182  0.27824674  0.86458668    -0.83800
O297        O  0.34886119  0.28442709  0.91138479    -0.80900
C298        C  0.36538104  0.29697911  0.93180897     0.99700
O299        O  0.37616735  0.32348419  0.92931462    -0.80900
O300        O  0.31336104  0.35135649  0.93990126    -0.83500
C301        C  0.28161605  0.35965257  0.93658434     1.04100
O302        O  0.26739569  0.36093661  0.91170829    -0.76300
O303        O  0.26316723  0.30482988  0.88729639    -0.76500
C304        C  0.27291443  0.28063171  0.87622265     1.04100
Cr305      Cr  0.34804870  0.30163655  0.87187589     1.93700
Cr306      Cr  0.34998336  0.35703871  0.91006101     1.93200
Cr307      Cr  0.28290235  0.34320810  0.87354722     1.39100
O308        O  0.32686706  0.33420399  0.88500440    -1.21600
O309        O  0.59777526  0.21196016  0.11722304    -0.83800
O310        O  0.64841025  0.21191073  0.16098339    -0.80900
C311        C  0.67718661  0.20567691  0.17389058     0.99600
O312        O  0.70592370  0.20093558  0.16000550    -0.80900
O313        O  0.69884219  0.14633650  0.13413792    -0.83500
C314        C  0.68665126  0.12667227  0.11750220     1.04200
O315        O  0.66862642  0.13354585  0.09535969    -0.76300
O316        O  0.60667420  0.16437794  0.11037977    -0.76500
C317        C  0.58638473  0.18550377  0.11738016     1.04100
O318        O  0.64732374  0.24454838  0.08144911    -0.83800
O319        O  0.69288100  0.25070557  0.12826225    -0.80900
C320        C  0.72325568  0.24830649  0.11664183     0.99700
O321        O  0.73299922  0.22410211  0.10557822    -0.80900
O322        O  0.72873272  0.16800407  0.08114613    -0.83500
C323        C  0.71452344  0.16930036  0.05626567     1.04100
O324        O  0.68278876  0.17761999  0.05294061    -0.76300
O325        O  0.61998970  0.20550769  0.06351744    -0.76500
C326        C  0.63080214  0.23200489  0.06102126     1.04100
Cr327      Cr  0.64810344  0.22733638  0.12095786     1.93700
Cr328      Cr  0.71322246  0.18573099  0.11930940     1.93200
Cr329      Cr  0.64615294  0.17194045  0.08276862     1.39100
O330        O  0.66927165  0.19476048  0.10783614    -1.21600
O331        O  0.59776848  0.31703491  0.87556477    -0.83800
O332        O  0.64841569  0.31711021  0.83181499    -0.80900
C333        C  0.67719591  0.32334923  0.81891582     0.99600
O334        O  0.70592895  0.32808733  0.83280887    -0.80900
O335        O  0.69884654  0.38267244  0.85870491    -0.83500
C336        C  0.68664396  0.40232831  0.87534426     1.04200
O337        O  0.66860498  0.39544451  0.89747658    -0.76300
O338        O  0.60666110  0.36461531  0.88242348    -0.76500
C339        C  0.58637525  0.34349012  0.87541374     1.04100
O340        O  0.64731105  0.28443483  0.91133201    -0.83800
O341        O  0.69287819  0.27830090  0.86452376    -0.80900
C342        C  0.72324299  0.28069235  0.87616146     0.99700
O343        O  0.73298154  0.30489183  0.88723716    -0.80900
O344        O  0.72870918  0.36097452  0.91169542    -0.83500
C345        C  0.71448599  0.35966852  0.93657087     1.04100
O346        O  0.68274770  0.35135217  0.93988135    -0.76300
O347        O  0.61996058  0.32346319  0.92927231    -0.76500
C348        C  0.63078225  0.29696788  0.93176209     1.04100
Cr349      Cr  0.64809835  0.30166476  0.87183174     1.93700
Cr350      Cr  0.71321516  0.34326972  0.87351704     1.93200
Cr351      Cr  0.64612756  0.35704288  0.91004371     1.39100
O352        O  0.66925920  0.33423575  0.88497291    -1.21600
C353        C  0.62491003  0.28156375  0.95855067    -0.17000
C354        C  0.62258797  0.27052546  0.98227613     0.07100
C355        C  0.62259368  0.25843359  0.01050139     0.08900
C356        C  0.62492435  0.24740021  0.03422847    -0.17800
C357        C  0.44703120  0.34888940  0.86984954    -0.17000
C358        C  0.47913213  0.35098516  0.86771686     0.07100
C359        C  0.51698881  0.35098196  0.86770952     0.08900
C360        C  0.54909047  0.34888390  0.86983152    -0.17800
C361        C  0.44704057  0.18004523  0.12296834    -0.17000
C362        C  0.47914383  0.17796515  0.12509147     0.07100
C363        C  0.51700050  0.17799239  0.12508930     0.08900
C364        C  0.54910045  0.18010605  0.12296284    -0.17800
C365        C  0.37129894  0.24738541  0.03425713    -0.17000
C366        C  0.37363726  0.25843418  0.01053767     0.07100
C367        C  0.37363247  0.27054029  0.98231853     0.08900
C368        C  0.37128754  0.28158220  0.95859643    -0.17800
C369        C  0.24727419  0.00572829  0.87539486    -0.17000
C370        C  0.26585039  0.98387521  0.87342671     0.07100
C371        C  0.28526584  0.45699638  0.87125497     0.08900
C372        C  0.29885103  0.43266527  0.87125183    -0.17800
C373        C  0.19724719  0.18267306  0.87128877    -0.17000
C374        C  0.21085276  0.20699660  0.87130437     0.07100
C375        C  0.23029594  0.23386127  0.87348295     0.08900
C376        C  0.24888691  0.25570578  0.87545285    -0.17800
C377        C  0.26315863  0.15835263  0.03128959    -0.17000
C378        C  0.25288808  0.14673294  0.00933142     0.07100
C379        C  0.24329731  0.13221880  0.98343020     0.08900
C380        C  0.23301978  0.12059387  0.96147688    -0.17800
C381        C  0.26311144  0.37059182  0.96150431    -0.17000
C382        C  0.25282940  0.38220515  0.98346211     0.07100
C383        C  0.24324008  0.39670902  0.00936913     0.08900
C384        C  0.23297535  0.40832602  0.03133052    -0.17800
C385        C  0.12491212  0.49737200  0.03425764    -0.17000
C386        C  0.12258716  0.00840659  0.01053081     0.07100
C387        C  0.12258972  0.02049844  0.98230558     0.08900
C388        C  0.12491831  0.03153546  0.95857996    -0.17800
C389        C  0.19724992  0.34624386  0.12154181    -0.17000
C390        C  0.21085360  0.32191987  0.12152728     0.07100
C391        C  0.23029583  0.29505508  0.11935136     0.08900
C392        C  0.24888654  0.27321056  0.11738369    -0.17800
C393        C  0.24728588  0.02319017  0.11740492    -0.17000
C394        C  0.26586594  0.04504237  0.11935959     0.07100
C395        C  0.28528556  0.07192012  0.12151873     0.08900
C396        C  0.29887071  0.09625142  0.12151985    -0.17800
C397        C  0.94703710  0.09891615  0.86983267    -0.17000
C398        C  0.97914048  0.10099669  0.86771146     0.07100
C399        C  0.01699722  0.10097078  0.86772020     0.08900
C400        C  0.04909619  0.09885744  0.86985405    -0.17800
C401        C  0.73302243  0.15834410  0.03135024    -0.17000
C402        C  0.74329700  0.14672102  0.00939515     0.07100
C403        C  0.75288628  0.13221482  0.98348956     0.08900
C404        C  0.76315821  0.12060449  0.96152723    -0.17800
C405        C  0.79886046  0.18270946  0.87128241    -0.17000
C406        C  0.78527276  0.20703950  0.87128435     0.07100
C407        C  0.76585136  0.23391579  0.87344525     0.08900
C408        C  0.74727166  0.25576778  0.87540092    -0.17800
C409        C  0.74888716  0.00574854  0.87545284    -0.17000
C410        C  0.73029596  0.98390364  0.87349199     0.07100
C411        C  0.71085136  0.45703958  0.87132016     0.08900
C412        C  0.69724554  0.43271639  0.87130454    -0.17800
C413        C  0.04909531  0.43007735  0.12298501    -0.17000
C414        C  0.01699300  0.42797722  0.12509907     0.07100
C415        C  0.97913647  0.42797082  0.12508421     0.08900
C416        C  0.94703585  0.43006589  0.12294902    -0.17800
C417        C  0.87130060  0.03159071  0.95855863    -0.17000
C418        C  0.87364048  0.02054271  0.98227831     0.07100
C419        C  0.87363692  0.00843524  0.01049682     0.08900
C420        C  0.87129213  0.49739081  0.03421786    -0.17800
C421        C  0.76311001  0.40836178  0.03131617    -0.17000
C422        C  0.75283036  0.39673876  0.00936235     0.07100
C423        C  0.74324048  0.38222789  0.98345897     0.08900
C424        C  0.73297311  0.37061054  0.96149840    -0.17800
C425        C  0.74889155  0.02325329  0.11738363    -0.17000
C426        C  0.73030094  0.04509744  0.11936003     0.07100
C427        C  0.71085879  0.07196231  0.12154200     0.08900
C428        C  0.69725388  0.09628608  0.12155615    -0.17800
C429        C  0.79886138  0.34629492  0.12155317    -0.17000
C430        C  0.78527890  0.32196243  0.12155051     0.07100
C431        C  0.76586570  0.29508202  0.11937978     0.08900
C432        C  0.74728930  0.27322859  0.11741219    -0.17800
C433        C  0.67752148  0.32410703  0.70495700    -0.17000
C434        C  0.67778540  0.32442232  0.73108543     0.07100
C435        C  0.67784984  0.32442395  0.76169144     0.08900
C436        C  0.67767280  0.32410767  0.78782036    -0.17800
C437        C  0.67765713  0.20492484  0.20498576    -0.17000
C438        C  0.67784484  0.20461017  0.23111437     0.07100
C439        C  0.67779582  0.20461690  0.26171997     0.08900
C440        C  0.67753842  0.20494150  0.28784807    -0.17800
C441        C  0.62464718  0.24745459  0.45856524    -0.17000
C442        C  0.62230367  0.25850389  0.48228441     0.07100
C443        C  0.62230125  0.27061163  0.51050297     0.08900
C444        C  0.62464069  0.28165544  0.53422481    -0.17800
C445        C  0.31841256  0.32403585  0.78785991    -0.17000
C446        C  0.31814764  0.32436418  0.76173177     0.07100
C447        C  0.31808408  0.32437688  0.73112607     0.08900
C448        C  0.31826335  0.32406565  0.70499722    -0.17800
C449        C  0.44682755  0.34888985  0.62297002    -0.17000
C450        C  0.47892763  0.35100478  0.62509288     0.07100
C451        C  0.51678447  0.35103171  0.62509121     0.08900
C452        C  0.54888751  0.34895208  0.62296527    -0.17800
C453        C  0.31827553  0.20487725  0.28783123    -0.17000
C454        C  0.31808853  0.20455996  0.26170243     0.07100
C455        C  0.31813701  0.20455966  0.23109651     0.08900
C456        C  0.31839317  0.20487487  0.20496809    -0.17800
C457        C  0.44685120  0.18010542  0.36984269    -0.17000
C458        C  0.47895283  0.17800780  0.36771830     0.07100
C459        C  0.51680951  0.17800313  0.36772253     0.08900
C460        C  0.54891083  0.18009886  0.36985207    -0.17800
C461        C  0.37101341  0.28157165  0.53424730    -0.17000
C462        C  0.37334126  0.27053781  0.51052005     0.07100
C463        C  0.37334320  0.25844603  0.48229458     0.08900
C464        C  0.37101868  0.24740782  0.45856908    -0.17800
C465        C  0.17752497  0.07406457  0.70497008    -0.17000
C466        C  0.17778133  0.07438310  0.73109831     0.07100
C467        C  0.17783068  0.07438201  0.76170395     0.08900
C468        C  0.17764444  0.07406003  0.78783253    -0.17800
C469        C  0.24704267  0.00572529  0.61739475    -0.17000
C470        C  0.26563272  0.98388123  0.61936683     0.07100
C471        C  0.28507353  0.45701645  0.62154377     0.08900
C472        C  0.29867520  0.43269210  0.62155476    -0.17800
C473        C  0.19707675  0.18268409  0.62155136    -0.17000
C474        C  0.21065766  0.20701664  0.62155227     0.07100
C475        C  0.23007315  0.23389547  0.61938720     0.08900
C476        C  0.24865146  0.25574749  0.61742361    -0.17800
C477        C  0.26296330  0.15833657  0.46149460    -0.17000
C478        C  0.25269785  0.14671319  0.48345249     0.07100
C479        C  0.24311007  0.13220257  0.50935635     0.08900
C480        C  0.23283103  0.12058602  0.53131336    -0.17800
C481        C  0.17768463  0.45488295  0.20499783    -0.17000
C482        C  0.17786331  0.45457460  0.23112668     0.07100
C483        C  0.17779921  0.45458333  0.26173250     0.08900
C484        C  0.17753390  0.45490309  0.28786071    -0.17800
C485        C  0.26290863  0.37060391  0.53134663    -0.17000
C486        C  0.25263381  0.38222054  0.50938859     0.07100
C487        C  0.24304526  0.39672681  0.48348305     0.08900
C488        C  0.23277470  0.40834358  0.46152382    -0.17800
C489        C  0.12464351  0.03156942  0.53424703    -0.17000
C490        C  0.12230082  0.02052171  0.51052718     0.07100
C491        C  0.12230018  0.00841471  0.48230821     0.08900
C492        C  0.12464088  0.49737023  0.45858675    -0.17800
C493        C  0.24865745  0.27320391  0.37540967    -0.17000
C494        C  0.23007983  0.29505709  0.37344998     0.07100
C495        C  0.21066076  0.32193495  0.37128440     0.08900
C496        C  0.19707214  0.34626505  0.37128000    -0.17800
C497        C  0.24704998  0.02322571  0.37545974    -0.17000
C498        C  0.26564163  0.04507057  0.37349478     0.07100
C499        C  0.28508732  0.07193464  0.37131941     0.08900
C500        C  0.29869592  0.09625733  0.37130222    -0.17800
C501        C  0.81838216  0.07408887  0.78784854    -0.17000
C502        C  0.81812552  0.07441313  0.76172051     0.07100
C503        C  0.81807764  0.07442719  0.73111486     0.08900
C504        C  0.81826621  0.07412260  0.70498619    -0.17800
C505        C  0.94684642  0.09891386  0.62296629    -0.17000
C506        C  0.97894814  0.10101323  0.62508769     0.07100
C507        C  0.01680476  0.10101980  0.62508308     0.08900
C508        C  0.04890634  0.09892425  0.62295598    -0.17800
C509        C  0.73283081  0.15844518  0.46151040    -0.17000
C510        C  0.74311225  0.14683280  0.48346840     0.07100
C511        C  0.75269960  0.13232204  0.50937173     0.08900
C512        C  0.76296187  0.12069442  0.53132808    -0.17800
C513        C  0.74704852  0.25579475  0.61736045    -0.17000
C514        C  0.76564047  0.23395027  0.61932661     0.07100
C515        C  0.78508611  0.20708589  0.62150172     0.08900
C516        C  0.79869419  0.18276304  0.62151804    -0.17800
C517        C  0.74864316  0.00581960  0.61741501    -0.17000
C518        C  0.73006580  0.98396622  0.61937825     0.07100
C519        C  0.71064985  0.45708653  0.62154463     0.08900
C520        C  0.69706448  0.43275491  0.62154693    -0.17800
C521        C  0.81843160  0.45493361  0.20495662    -0.17000
C522        C  0.81816822  0.45461636  0.23108489     0.07100
C523        C  0.81810440  0.45461806  0.26169081     0.08900
C524        C  0.81828157  0.45494003  0.28781957    -0.17800
C525        C  0.94683486  0.43012421  0.36983806    -0.17000
C526        C  0.97893456  0.42801028  0.36771162     0.07100
C527        C  0.01679107  0.42798586  0.36771279     0.08900
C528        C  0.04889358  0.43006726  0.36984161    -0.17800
C529        C  0.87102261  0.49744571  0.45856893    -0.17000
C530        C  0.87334707  0.00848019  0.48229607     0.07100
C531        C  0.87334464  0.02057324  0.51052117     0.08900
C532        C  0.87101648  0.03161219  0.53424611    -0.17800
C533        C  0.73277583  0.37068863  0.53129856    -0.17000
C534        C  0.74304488  0.38230783  0.50933949     0.07100
C535        C  0.75263400  0.39681270  0.48343268     0.08900
C536        C  0.76291170  0.40842522  0.46147298    -0.17800
C537        C  0.69708739  0.09633507  0.37127513    -0.17000
C538        C  0.71067371  0.07200478  0.37127593     0.07100
C539        C  0.73009396  0.04512858  0.37343982     0.08900
C540        C  0.74867308  0.02327696  0.37539983    -0.17800
C541        C  0.79867850  0.34632808  0.37126279    -0.17000
C542        C  0.78507665  0.32200380  0.37127539     0.07100
C543        C  0.76563621  0.29513887  0.37345389     0.08900
C544        C  0.74704676  0.27329441  0.37542570    -0.17800
O545        O  0.89816843  0.96198617  0.37557576    -0.83800
O546        O  0.84753019  0.96193355  0.33181949    -0.80900
C547        C  0.81875156  0.95570146  0.31891490     0.99600
O548        O  0.79001373  0.95096985  0.33280271    -0.80900
O549        O  0.79708497  0.89637641  0.35868019    -0.83500
C550        C  0.80927730  0.87671420  0.37531669     1.04200
O551        O  0.82730221  0.88358926  0.39745877    -0.76300
O552        O  0.88925923  0.91440687  0.38242941    -0.76500
C553        C  0.90955251  0.93552811  0.37542267     1.04100
O554        O  0.84863046  0.99459019  0.41134631    -0.83800
O555        O  0.80307078  0.00074329  0.36453572    -0.80900
C556        C  0.77270003  0.99835164  0.37616423     0.99700
O557        O  0.76295285  0.97415077  0.38723183    -0.80900
O558        O  0.76720429  0.91805991  0.41167176    -0.83500
C559        C  0.78141506  0.91936336  0.43655149     1.04100
O560        O  0.81315376  0.92767500  0.43987181    -0.76300
O561        O  0.87595785  0.95555002  0.42928396    -0.76500
C562        C  0.86514832  0.98204821  0.43177662     1.04100
Cr563      Cr  0.84784400  0.97736929  0.37184124     1.93700
Cr564      Cr  0.78271579  0.93577511  0.37350332     1.93200
Cr565      Cr  0.84978520  0.92198227  0.41004189     1.39100
O566        O  0.82666987  0.94479977  0.38497117    -1.21600
O567        O  0.89816262  0.56706966  0.61723221    -0.83800
O568        O  0.84752145  0.56713957  0.66098798    -0.80900
C569        C  0.81874337  0.57337801  0.67389086     0.99600
O570        O  0.79001066  0.57812623  0.66000157    -0.80900
O571        O  0.79710046  0.63271711  0.63411616    -0.83500
C572        C  0.80929903  0.65237476  0.61747681     1.04200
O573        O  0.82733494  0.64549201  0.59534228    -0.76300
O574        O  0.88927631  0.61465225  0.61038365    -0.76500
C575        C  0.90956010  0.59352383  0.61738677     1.04100
O576        O  0.84860972  0.53448115  0.58146322    -0.83800
O577        O  0.80304771  0.52834317  0.62827524    -0.80900
C578        C  0.77267797  0.53074115  0.61664740     0.99700
O579        O  0.76294131  0.55494356  0.60557623    -0.80900
O580        O  0.76722498  0.61103357  0.58112594    -0.83500
C581        C  0.78144481  0.60973349  0.55624904     1.04100
O582        O  0.81317839  0.60140765  0.55293252    -0.76300
O583        O  0.87596343  0.57351032  0.56352791    -0.76500
C584        C  0.86514053  0.54701544  0.56103512     1.04100
Cr585      Cr  0.84783036  0.55170369  0.62096716     1.93700
Cr586      Cr  0.78272074  0.59331785  0.61929859     1.93200
Cr587      Cr  0.84980447  0.60708911  0.58276639     1.39100
O588        O  0.82667283  0.58427978  0.60783528    -1.21600
O589        O  0.14822873  0.96187177  0.33184536    -0.83800
O590        O  0.09756363  0.96191807  0.37558936    -0.80900
C591        C  0.08617679  0.93546161  0.37542957     0.99600
O592        O  0.10646683  0.91433743  0.38243361    -0.80900
O593        O  0.16842223  0.88351778  0.39747182    -0.83500
C594        C  0.18647385  0.87665173  0.37534073     1.04200
O595        O  0.19868445  0.89632081  0.35871969    -0.76300
O596        O  0.20574895  0.95092387  0.33285889    -0.76500
C597        C  0.17702255  0.95565202  0.31895571     1.04100
O598        O  0.19265836  0.00068549  0.36458210    -0.83800
O599        O  0.14707359  0.99451636  0.41137778    -0.80900
C600        C  0.13054430  0.98197027  0.43180024     0.99700
O601        O  0.11974692  0.95546829  0.42930474    -0.80900
O602        O  0.18254082  0.92758783  0.43990767    -0.83500
C603        C  0.21428518  0.91928722  0.43659872     1.04100
O604        O  0.22851626  0.91800125  0.41172616    -0.76300
O605        O  0.23276248  0.97410203  0.38730150    -0.76500
C606        C  0.22302146  0.99829994  0.37622419     1.04100
Cr607      Cr  0.14788685  0.97730249  0.37187099     1.93700
Cr608      Cr  0.14592907  0.92190572  0.41006062     1.93200
Cr609      Cr  0.21302430  0.93572211  0.37355723     1.39100
O610        O  0.16905817  0.94473322  0.38500538    -1.21600
O611        O  0.14822494  0.56709990  0.66098288    -0.83800
O612        O  0.09756701  0.56705774  0.61723381    -0.80900
C613        C  0.08618892  0.59351713  0.61737541     0.99600
O614        O  0.10648735  0.61463288  0.61036245    -0.80900
O615        O  0.16846072  0.64542965  0.59533987    -0.83500
C616        C  0.18648981  0.65229680  0.61748253     1.04200
O617        O  0.19868851  0.63262887  0.63411008    -0.76300
O618        O  0.20574954  0.57802813  0.65997467    -0.76500
C619        C  0.17701895  0.57331175  0.67387531     1.04100
O620        O  0.19264904  0.52827006  0.62825442    -0.83800
O621        O  0.14706737  0.53443326  0.58145816    -0.80900
C622        C  0.13055088  0.54697753  0.56102833     0.99700
O623        O  0.11977108  0.57348531  0.56351054    -0.80900
O624        O  0.18258732  0.60134163  0.55291801    -0.83500
C625        C  0.21432860  0.60964749  0.55623477     1.04100
O626        O  0.22854347  0.61094591  0.58111226    -0.76300
O627        O  0.23276774  0.55484580  0.60553961    -0.76500
C628        C  0.22301736  0.53065120  0.61661886     1.04100
Cr629      Cr  0.14788370  0.55165965  0.62096006     1.93700
Cr630      Cr  0.14596087  0.60704456  0.58275147     1.93200
Cr631      Cr  0.21303362  0.59322764  0.61927754     1.39100
O632        O  0.16906977  0.58421987  0.60782038    -1.21600
O633        O  0.39816933  0.71194945  0.37558284    -0.83800
O634        O  0.34752840  0.71187466  0.33182836    -0.80900
C635        C  0.31875056  0.70563381  0.31892658     0.99600
O636        O  0.29001653  0.70089163  0.33281698    -0.80900
O637        O  0.29710053  0.64630279  0.35870459    -0.83500
C638        C  0.30930136  0.62664538  0.37534261     1.04200
O639        O  0.32734031  0.63352783  0.39747528    -0.76300
O640        O  0.38928199  0.66436708  0.38243135    -0.76500
C641        C  0.40956583  0.68549533  0.37542660     1.04100
O642        O  0.34861704  0.74453887  0.41135090    -0.83800
O643        O  0.30305619  0.75067559  0.36453926    -0.80900
C644        C  0.27268885  0.74828041  0.37617228     0.99700
O645        O  0.26295131  0.72407872  0.38724443    -0.80900
O646        O  0.26722882  0.66799060  0.41169530    -0.83500
C647        C  0.28144965  0.66929041  0.43657161     1.04100
O648        O  0.31318566  0.67761101  0.43988637    -0.76300
O649        O  0.37596946  0.70550994  0.42928743    -0.76500
C650        C  0.36514606  0.73200468  0.43177973     1.04100
Cr651      Cr  0.34783761  0.72731455  0.37184790     1.93700
Cr652      Cr  0.28272573  0.68570319  0.37352142     1.93200
Cr653      Cr  0.34981070  0.67193031  0.41005039     1.39100
O654        O  0.32667895  0.69473954  0.38498225    -1.21600
O655        O  0.39815635  0.81702986  0.61724041    -0.83800
O656        O  0.34751558  0.81708182  0.66099711    -0.80900
C657        C  0.31873649  0.82331308  0.67390188     0.99600
O658        O  0.29000044  0.82804982  0.66001411    -0.80900
O659        O  0.29707998  0.88264363  0.63413760    -0.83500
C660        C  0.30927242  0.90230552  0.61750041     1.04200
O661        O  0.32729590  0.89542965  0.59535748    -0.76300
O662        O  0.38925128  0.86460947  0.61038549    -0.76500
C663        C  0.40954339  0.84348741  0.61739078     1.04100
O664        O  0.34861695  0.78442805  0.58146899    -0.83800
O665        O  0.30305453  0.77827621  0.62827919    -0.80900
C666        C  0.27268215  0.78067064  0.61665441     0.99700
O667        O  0.26293720  0.80487193  0.60558663    -0.80900
O668        O  0.26719715  0.86096362  0.58114643    -0.83500
C669        C  0.28140808  0.85965975  0.55626660     1.04100
O670        O  0.31314470  0.85134347  0.55294548    -0.76300
O671        O  0.37594769  0.82346731  0.56353199    -0.76500
C672        C  0.36513724  0.79696939  0.56103921     1.04100
Cr673      Cr  0.34783016  0.80164822  0.62097452     1.93700
Cr674      Cr  0.28270561  0.84324624  0.61931421     1.93200
Cr675      Cr  0.34977639  0.85703544  0.58277433     1.39100
O676        O  0.32665897  0.83421890  0.60784548    -1.21600
O677        O  0.64823483  0.71191399  0.33183292    -0.83800
O678        O  0.59757254  0.71196375  0.37557973    -0.80900
C679        C  0.58619285  0.68550491  0.37543664     0.99600
O680        O  0.60648921  0.66438856  0.38245116    -0.80900
O681        O  0.66845911  0.63358929  0.39747855    -0.83500
C682        C  0.68649568  0.62672164  0.37533976     1.04200
O683        O  0.69869826  0.64638893  0.35871301    -0.76300
O684        O  0.70575965  0.70098749  0.33284522    -0.76500
C685        C  0.67703013  0.70570048  0.31894265     1.04100
O686        O  0.69265719  0.75074676  0.36455906    -0.83800
O687        O  0.64707256  0.74458769  0.41135463    -0.80900
C688        C  0.63055453  0.73204472  0.43178490     0.99700
O689        O  0.61977268  0.70553717  0.42930375    -0.80900
O690        O  0.68258328  0.67767615  0.43990124    -0.83500
C691        C  0.71432708  0.66937579  0.43658701     1.04100
O692        O  0.72854542  0.66807723  0.41171079    -0.76300
O693        O  0.73277043  0.72417448  0.38728195    -0.76500
C694        C  0.72302233  0.74836781  0.37619966     1.04100
Cr695      Cr  0.64789073  0.72735862  0.37185409     1.93700
Cr696      Cr  0.64596035  0.67197537  0.41006485     1.93200
Cr697      Cr  0.71303948  0.68579154  0.37354396     1.39100
O698        O  0.66907397  0.69479893  0.38499722    -1.21600
O699        O  0.64822061  0.81714282  0.66097000    -0.83800
O700        O  0.59755942  0.81710203  0.61722349    -0.80900
C701        C  0.58617240  0.84355846  0.61738240     0.99600
O702        O  0.60646406  0.86468305  0.61038147    -0.80900
O703        O  0.66842209  0.89550302  0.59534861    -0.83500
C704        C  0.68646938  0.90236788  0.61748216     1.04200
O705        O  0.69867773  0.88269777  0.63410265    -0.76300
O706        O  0.70574051  0.82809288  0.65996024    -0.76500
C707        C  0.67701314  0.82336200  0.67386169     1.04100
O708        O  0.69265274  0.77833233  0.62823118    -0.83800
O709        O  0.64707123  0.78450587  0.58143432    -0.80900
C710        C  0.63054347  0.79705348  0.56101230     0.99700
O711        O  0.61974725  0.82355545  0.56350917    -0.80900
O712        O  0.68254402  0.85143492  0.55291126    -0.83500
C713        C  0.71428685  0.85973869  0.55622209     1.04100
O714        O  0.72851581  0.86102248  0.58109562    -0.76300
O715        O  0.73276132  0.80491886  0.60551870    -0.76500
C716        C  0.72301872  0.78071985  0.61659361     1.04100
Cr717      Cr  0.64788202  0.80171635  0.62094262     1.93700
Cr718      Cr  0.64592930  0.85711591  0.58275653     1.93200
Cr719      Cr  0.71302014  0.84329783  0.61926318     1.39100
O720        O  0.66905529  0.83428666  0.60781174    -1.21600
O721        O  0.84772445  0.96189653  0.16096455    -0.83800
O722        O  0.89837550  0.96192923  0.11720959    -0.80900
C723        C  0.90975440  0.93547027  0.11736188     0.99600
O724        O  0.88945725  0.91435114  0.11035584    -0.80900
O725        O  0.82748631  0.88354463  0.09534124    -0.83500
C726        C  0.80945485  0.87668130  0.11748383     1.04200
O727        O  0.79725880  0.89635261  0.13410961    -0.76300
O728        O  0.79020177  0.95095946  0.15996522    -0.76500
C729        C  0.81893371  0.95568248  0.17386144     1.04100
O730        O  0.80329237  0.00071453  0.12823235    -0.83800
O731        O  0.84886705  0.99453892  0.08142996    -0.80900
C732        C  0.86538474  0.98198966  0.06100300     0.99700
O733        O  0.87616757  0.95548346  0.06349224    -0.80900
O734        O  0.81335329  0.92761844  0.05291104    -0.83500
C735        C  0.78161258  0.91931237  0.05623248     1.04100
O736        O  0.76739818  0.91802456  0.08111109    -0.76300
O737        O  0.76317023  0.97413074  0.10553103    -0.76500
C738        C  0.77292035  0.99832855  0.11660461     1.04100
Cr739      Cr  0.84805787  0.97732488  0.12093716     1.93700
Cr740      Cr  0.84998225  0.92192810  0.08274390     1.93200
Cr741      Cr  0.78291114  0.93575162  0.11927190     1.39100
O742        O  0.82687281  0.94475912  0.10780819    -1.21600
O743        O  0.84769317  0.56711636  0.83182826    -0.83800
O744        O  0.89836596  0.56706352  0.87556533    -0.80900
C745        C  0.90975253  0.59352019  0.87541484     0.99600
O746        O  0.88946174  0.61464193  0.88242517    -0.80900
O747        O  0.82750466  0.64545377  0.89747239    -0.83500
C748        C  0.80945390  0.65232235  0.87534196     1.04200
O749        O  0.79724046  0.63265564  0.85871959    -0.76300
O750        O  0.79017150  0.57805699  0.83285071    -0.76500
C751        C  0.81889633  0.57333460  0.81894319     1.04100
O752        O  0.80327173  0.52829364  0.86456318    -0.83800
O753        O  0.84886509  0.53445399  0.91135197    -0.80900
C754        C  0.86539476  0.54699640  0.93177621     0.99700
O755        O  0.87618873  0.57349989  0.92928677    -0.80900
O756        O  0.81339324  0.60137309  0.93990109    -0.83500
C757        C  0.78164785  0.60967237  0.93659723     1.04100
O758        O  0.76741550  0.61096706  0.91172589    -0.76300
O759        O  0.76317151  0.55487130  0.88729497    -0.76500
C760        C  0.77291248  0.53067548  0.87621308     1.04100
Cr761      Cr  0.84804344  0.55167691  0.87184980     1.93700
Cr762      Cr  0.85000177  0.60706496  0.91005255     1.93200
Cr763      Cr  0.78290345  0.59325289  0.87355270     1.39100
O764        O  0.82687193  0.58424193  0.88499403    -1.21600
O765        O  0.09777624  0.96192507  0.11725354    -0.83800
O766        O  0.14842539  0.96186527  0.16100243    -0.80900
C767        C  0.17720592  0.95562985  0.17390234     0.99600
O768        O  0.20593782  0.95088472  0.16000984    -0.80900
O769        O  0.19885284  0.89629167  0.13412907    -0.83500
C770        C  0.18664957  0.87663134  0.11749510     1.04200
O771        O  0.16861102  0.88350946  0.09536129    -0.76300
O772        O  0.10666863  0.91434265  0.11040809    -0.76500
C773        C  0.08638200  0.93546991  0.11740951     1.04100
O774        O  0.14731837  0.99451450  0.08147510    -0.83800
O775        O  0.19288750  0.00066320  0.12828058    -0.80900
C776        C  0.22325413  0.99826696  0.11664638     0.99700
O777        O  0.23299160  0.97406439  0.10557638    -0.80900
O778        O  0.22871465  0.91797467  0.08113152    -0.83500
C779        C  0.21449030  0.91927407  0.05625647     1.04100
O780        O  0.18275254  0.92759048  0.05294503    -0.76300
O781        O  0.11996590  0.95548086  0.06354778    -0.76500
C782        C  0.13078748  0.98197540  0.06104979     1.04100
Cr783      Cr  0.14810678  0.97729712  0.12098074     1.93700
Cr784      Cr  0.21322261  0.93569039  0.11930598     1.93200
Cr785      Cr  0.14613385  0.92190747  0.08278496     1.39100
O786        O  0.16926665  0.94472188  0.10784876    -1.21600
O787        O  0.09776665  0.56700022  0.87559515    -0.83800
O788        O  0.14839945  0.56706197  0.83183424    -0.80900
C789        C  0.17717559  0.57329851  0.81892757     0.99600
O790        O  0.20591358  0.57803404  0.83281294    -0.80900
O791        O  0.19883357  0.63262614  0.85869474    -0.83500
C792        C  0.18664454  0.65228600  0.87533633     1.04200
O793        O  0.16862154  0.64540669  0.89747856    -0.76300
O794        O  0.10666751  0.61458026  0.88245225    -0.76500
C795        C  0.08637823  0.59345703  0.87544325     1.04100
O796        O  0.14731438  0.53440035  0.91135882    -0.83800
O797        O  0.19287021  0.52825657  0.86454365    -0.80900
C798        C  0.22324352  0.53065164  0.87616673     0.99700
O799        O  0.23298847  0.55485334  0.88723493    -0.80900
O800        O  0.22872611  0.61094499  0.91167949    -0.83500
C801        C  0.21451898  0.60964152  0.93656057     1.04100
O802        O  0.18278452  0.60131999  0.93988538    -0.76300
O803        O  0.11998293  0.57343625  0.92930269    -0.76500
C804        C  0.13079446  0.54693815  0.93179095     1.04100
Cr805      Cr  0.14809364  0.55162421  0.87185521     1.93700
Cr806      Cr  0.21321378  0.59322792  0.87351278     1.93200
Cr807      Cr  0.14614692  0.60700886  0.91006027     1.39100
O808        O  0.16926337  0.58419586  0.88498540    -1.21600
O809        O  0.34770145  0.71184303  0.16098571    -0.83800
O810        O  0.39836979  0.71189902  0.11724437    -0.80900
C811        C  0.40975605  0.68544223  0.11738825     0.99600
O812        O  0.38946478  0.66432182  0.11037447    -0.80900
O813        O  0.32750505  0.63351284  0.09532879    -0.83500
C814        C  0.30946128  0.62663985  0.11746215     1.04200
O815        O  0.29725249  0.64630369  0.13409009    -0.76300
O816        O  0.29018062  0.70089907  0.15996727    -0.76500
C817        C  0.31890588  0.70562415  0.17387300     1.04100
O818        O  0.30327661  0.75066786  0.12825759    -0.83800
O819        O  0.34886700  0.74451503  0.08146525    -0.80900
C820        C  0.36539486  0.73197603  0.06103797     0.99700
O821        O  0.37618782  0.70547208  0.06352243    -0.80900
O822        O  0.31338778  0.67760259  0.05290997    -0.83500
C823        C  0.28164591  0.66929449  0.05621691     1.04100
O824        O  0.26741771  0.66799627  0.08108994    -0.76300
O825        O  0.26317170  0.72409040  0.10553026    -0.76500
C826        C  0.27291384  0.74828526  0.11661397     1.04100
Cr827      Cr  0.34804808  0.72728622  0.12096527     1.93700
Cr828      Cr  0.35000110  0.67190441  0.08275311     1.93200
Cr829      Cr  0.28290912  0.68570760  0.11926399     1.39100
O830        O  0.32687527  0.69472270  0.10781859    -1.21600
O831        O  0.34771011  0.81706339  0.83184798    -0.83800
O832        O  0.39836835  0.81702923  0.87559726    -0.80900
C833        C  0.40974927  0.84348758  0.87543862     0.99600
O834        O  0.38945377  0.86460867  0.88244163    -0.80900
O835        O  0.32748778  0.89542042  0.89746036    -0.83500
C836        C  0.30944654  0.90227998  0.87532230     1.04200
O837        O  0.29724283  0.88260633  0.85870301    -0.76300
O838        O  0.29018678  0.82799770  0.83285416    -0.76500
C839        C  0.31891763  0.82327866  0.81895462     1.04100
O840        O  0.30328184  0.77824674  0.86458669    -0.83800
O841        O  0.34886122  0.78442708  0.91138477    -0.80900
C842        C  0.36538109  0.79697914  0.93180896     0.99700
O843        O  0.37616733  0.82348417  0.92931463    -0.80900
O844        O  0.31336107  0.85135644  0.93990124    -0.83500
C845        C  0.28161609  0.85965251  0.93658436     1.04100
O846        O  0.26739568  0.86093659  0.91170831    -0.76300
O847        O  0.26316727  0.80482994  0.88729636    -0.76500
C848        C  0.27291443  0.78063174  0.87622266     1.04100
Cr849      Cr  0.34804866  0.80163659  0.87187590     1.93700
Cr850      Cr  0.34998335  0.85703871  0.91006100     1.93200
Cr851      Cr  0.28290237  0.84320816  0.87354720     1.39100
O852        O  0.32686702  0.83420401  0.88500442    -1.21600
O853        O  0.59777524  0.71196023  0.11722303    -0.83800
O854        O  0.64841030  0.71191091  0.16098341    -0.80900
C855        C  0.67718657  0.70567704  0.17389059     0.99600
O856        O  0.70592370  0.70093559  0.16000550    -0.80900
O857        O  0.69884208  0.64633658  0.13413793    -0.83500
C858        C  0.68665131  0.62667228  0.11750220     1.04200
O859        O  0.66862650  0.63354581  0.09535967    -0.76300
O860        O  0.60667425  0.66437799  0.11037979    -0.76500
C861        C  0.58638480  0.68550386  0.11738014     1.04100
O862        O  0.64732383  0.74454839  0.08144908    -0.83800
O863        O  0.69288104  0.75070566  0.12826224    -0.80900
C864        C  0.72325565  0.74830651  0.11664183     0.99700
O865        O  0.73299920  0.72410217  0.10557822    -0.80900
O866        O  0.72873278  0.66800421  0.08114615    -0.83500
C867        C  0.71452353  0.66930039  0.05626567     1.04100
O868        O  0.68278881  0.67761993  0.05294060    -0.76300
O869        O  0.61998979  0.70550765  0.06351744    -0.76500
C870        C  0.63080224  0.73200492  0.06102124     1.04100
Cr871      Cr  0.64810345  0.72733650  0.12095785     1.93700
Cr872      Cr  0.71322240  0.68573108  0.11930940     1.93200
Cr873      Cr  0.64615300  0.67194044  0.08276863     1.39100
O874        O  0.66927163  0.69476056  0.10783614    -1.21600
O875        O  0.59776849  0.81703494  0.87556477    -0.83800
O876        O  0.64841562  0.81711019  0.83181500    -0.80900
C877        C  0.67719590  0.82334922  0.81891581     0.99600
O878        O  0.70592885  0.82808741  0.83280885    -0.80900
O879        O  0.69884667  0.88267248  0.85870495    -0.83500
C880        C  0.68664403  0.90232836  0.87534425     1.04200
O881        O  0.66860494  0.89544456  0.89747655    -0.76300
O882        O  0.60666115  0.86461534  0.88242345    -0.76500
C883        C  0.58637530  0.84349012  0.87541374     1.04100
O884        O  0.64731098  0.78443485  0.91133200    -0.83800
O885        O  0.69287816  0.77830088  0.86452373    -0.80900
C886        C  0.72324290  0.78069232  0.87616145     0.99700
O887        O  0.73298145  0.80489179  0.88723719    -0.80900
O888        O  0.72870910  0.86097449  0.91169544    -0.83500
C889        C  0.71448592  0.85966855  0.93657088     1.04100
O890        O  0.68274761  0.85135220  0.93988138    -0.76300
O891        O  0.61996053  0.82346323  0.92927229    -0.76500
C892        C  0.63078226  0.79696796  0.93176210     1.04100
Cr893      Cr  0.64809835  0.80166481  0.87183174     1.93700
Cr894      Cr  0.71321516  0.84326972  0.87351704     1.93200
Cr895      Cr  0.64612755  0.85704293  0.91004371     1.39100
O896        O  0.66925921  0.83423580  0.88497290    -1.21600
C897        C  0.62491013  0.78156383  0.95855071    -0.17000
C898        C  0.62258802  0.77052545  0.98227613     0.07100
C899        C  0.62259362  0.75843354  0.01050136     0.08900
C900        C  0.62492438  0.74740017  0.03422847    -0.17800
C901        C  0.44703124  0.84888945  0.86984955    -0.17000
C902        C  0.47913215  0.85098523  0.86771687     0.07100
C903        C  0.51698888  0.85098195  0.86770952     0.08900
C904        C  0.54909050  0.84888390  0.86983152    -0.17800
C905        C  0.44704059  0.68004515  0.12296832    -0.17000
C906        C  0.47914383  0.67796512  0.12509147     0.07100
C907        C  0.51700057  0.67799246  0.12508931     0.08900
C908        C  0.54910043  0.68010608  0.12296284    -0.17800
C909        C  0.37129890  0.74738553  0.03425716    -0.17000
C910        C  0.37363724  0.75843429  0.01053769     0.07100
C911        C  0.37363242  0.77054028  0.98231851     0.08900
C912        C  0.37128757  0.78158216  0.95859640    -0.17800
C913        C  0.24727427  0.50572826  0.87539484    -0.17000
C914        C  0.26585049  0.48387521  0.87342671     0.07100
C915        C  0.28526589  0.95699649  0.87125496     0.08900
C916        C  0.29885110  0.93266533  0.87125183    -0.17800
C917        C  0.19724711  0.68267310  0.87128875    -0.17000
C918        C  0.21085263  0.70699668  0.87130436     0.07100
C919        C  0.23029591  0.73386130  0.87348295     0.08900
C920        C  0.24888695  0.75570580  0.87545287    -0.17800
C921        C  0.26315870  0.65835259  0.03128958    -0.17000
C922        C  0.25288814  0.64673291  0.00933141     0.07100
C923        C  0.24329718  0.63221887  0.98343019     0.08900
C924        C  0.23301961  0.62059388  0.96147689    -0.17800
C925        C  0.26311152  0.87059176  0.96150435    -0.17000
C926        C  0.25282951  0.88220513  0.98346212     0.07100
C927        C  0.24324012  0.89670908  0.00936911     0.08900
C928        C  0.23297532  0.90832603  0.03133050    -0.17800
C929        C  0.12491211  0.99737201  0.03425763    -0.17000
C930        C  0.12258713  0.50840655  0.01053081     0.07100
C931        C  0.12258971  0.52049839  0.98230555     0.08900
C932        C  0.12491827  0.53153543  0.95857995    -0.17800
C933        C  0.19724987  0.84624392  0.12154183    -0.17000
C934        C  0.21085361  0.82192001  0.12152729     0.07100
C935        C  0.23029591  0.79505520  0.11935136     0.08900
C936        C  0.24888650  0.77321066  0.11738367    -0.17800
C937        C  0.24728585  0.52319012  0.11740493    -0.17000
C938        C  0.26586590  0.54504233  0.11935960     0.07100
C939        C  0.28528561  0.57192005  0.12151873     0.08900
C940        C  0.29887078  0.59625136  0.12151982    -0.17800
C941        C  0.94703701  0.59891615  0.86983267    -0.17000
C942        C  0.97914051  0.60099663  0.86771146     0.07100
C943        C  0.01699711  0.60097070  0.86772021     0.08900
C944        C  0.04909626  0.59885738  0.86985406    -0.17800
C945        C  0.73302256  0.65834418  0.03135028    -0.17000
C946        C  0.74329707  0.64672105  0.00939514     0.07100
C947        C  0.75288617  0.63221487  0.98348955     0.08900
C948        C  0.76315809  0.62060447  0.96152722    -0.17800
C949        C  0.79886049  0.68270953  0.87128237    -0.17000
C950        C  0.78527272  0.70703951  0.87128434     0.07100
C951        C  0.76585124  0.73391577  0.87344526     0.08900
C952        C  0.74727162  0.75576776  0.87540093    -0.17800
C953        C  0.74888711  0.50574850  0.87545284    -0.17000
C954        C  0.73029591  0.48390360  0.87349199     0.07100
C955        C  0.71085149  0.95703962  0.87132017     0.08900
C956        C  0.69724563  0.93271642  0.87130458    -0.17800
C957        C  0.04909526  0.93007745  0.12298501    -0.17000
C958        C  0.01699308  0.92797725  0.12509907     0.07100
C959        C  0.97913644  0.92797089  0.12508421     0.08900
C960        C  0.94703594  0.93006594  0.12294903    -0.17800
C961        C  0.87130071  0.53159073  0.95855863    -0.17000
C962        C  0.87364058  0.52054271  0.98227829     0.07100
C963        C  0.87363704  0.50843532  0.01049687     0.08900
C964        C  0.87129204  0.99739077  0.03421783    -0.17800
C965        C  0.76310991  0.90836188  0.03131617    -0.17000
C966        C  0.75283024  0.89673874  0.00936235     0.07100
C967        C  0.74324054  0.88222782  0.98345899     0.08900
C968        C  0.73297312  0.87061050  0.96149839    -0.17800
C969        C  0.74889160  0.52325336  0.11738361    -0.17000
C970        C  0.73030100  0.54509746  0.11936003     0.07100
C971        C  0.71085885  0.57196232  0.12154201     0.08900
C972        C  0.69725399  0.59628610  0.12155618    -0.17800
C973        C  0.79886145  0.84629488  0.12155312    -0.17000
C974        C  0.78527883  0.82196244  0.12155050     0.07100
C975        C  0.76586562  0.79508201  0.11937978     0.08900
C976        C  0.74728935  0.77322860  0.11741220    -0.17800
C977        C  0.67752152  0.82410701  0.70495700    -0.17000
C978        C  0.67778551  0.82442240  0.73108543     0.07100
C979        C  0.67784989  0.82442394  0.76169144     0.08900
C980        C  0.67767272  0.82410759  0.78782036    -0.17800
C981        C  0.67765719  0.70492495  0.20498576    -0.17000
C982        C  0.67784493  0.70461015  0.23111437     0.07100
C983        C  0.67779593  0.70461689  0.26171997     0.08900
C984        C  0.67753850  0.70494157  0.28784807    -0.17800
C985        C  0.62464727  0.74745466  0.45856524    -0.17000
C986        C  0.62230371  0.75850400  0.48228439     0.07100
C987        C  0.62230119  0.77061162  0.51050299     0.08900
C988        C  0.62464071  0.78165542  0.53422485    -0.17800
C989        C  0.31841263  0.82403591  0.78785991    -0.17000
C990        C  0.31814775  0.82436422  0.76173177     0.07100
C991        C  0.31808417  0.82437695  0.73112608     0.08900
C992        C  0.31826338  0.82406569  0.70499722    -0.17800
C993        C  0.44682754  0.84888976  0.62297002    -0.17000
C994        C  0.47892765  0.85100475  0.62509288     0.07100
C995        C  0.51678443  0.85103178  0.62509121     0.08900
C996        C  0.54888758  0.84895209  0.62296526    -0.17800
C997        C  0.31827548  0.70487719  0.28783123    -0.17000
C998        C  0.31808858  0.70455994  0.26170243     0.07100
C999        C  0.31813711  0.70455973  0.23109651     0.08900
C1000       C  0.31839320  0.70487485  0.20496809    -0.17800
C1001       C  0.44685130  0.68010539  0.36984268    -0.17000
C1002       C  0.47895286  0.67800774  0.36771831     0.07100
C1003       C  0.51680960  0.67800307  0.36772253     0.08900
C1004       C  0.54891087  0.68009888  0.36985205    -0.17800
C1005       C  0.37101343  0.78157166  0.53424729    -0.17000
C1006       C  0.37334120  0.77053788  0.51052005     0.07100
C1007       C  0.37334325  0.75844600  0.48229457     0.08900
C1008       C  0.37101877  0.74740779  0.45856908    -0.17800
C1009       C  0.17752483  0.57406452  0.70497009    -0.17000
C1010       C  0.17778121  0.57438303  0.73109831     0.07100
C1011       C  0.17783073  0.57438194  0.76170395     0.08900
C1012       C  0.17764452  0.57405996  0.78783253    -0.17800
C1013       C  0.24704263  0.50572525  0.61739472    -0.17000
C1014       C  0.26563263  0.48388119  0.61936683     0.07100
C1015       C  0.28507359  0.95701650  0.62154377     0.08900
C1016       C  0.29867511  0.93269205  0.62155476    -0.17800
C1017       C  0.19707684  0.68268410  0.62155136    -0.17000
C1018       C  0.21065775  0.70701660  0.62155227     0.07100
C1019       C  0.23007321  0.73389548  0.61938720     0.08900
C1020       C  0.24865144  0.75574752  0.61742364    -0.17800
C1021       C  0.26296322  0.65833667  0.46149456    -0.17000
C1022       C  0.25269788  0.64671322  0.48345248     0.07100
C1023       C  0.24311018  0.63220268  0.50935637     0.08900
C1024       C  0.23283111  0.62058617  0.53131341    -0.17800
C1025       C  0.17768457  0.95488295  0.20499783    -0.17000
C1026       C  0.17786319  0.95457467  0.23112668     0.07100
C1027       C  0.17779903  0.95458331  0.26173250     0.08900
C1028       C  0.17753379  0.95490306  0.28786072    -0.17800
C1029       C  0.26290860  0.87060387  0.53134659    -0.17000
C1030       C  0.25263376  0.88222051  0.50938860     0.07100
C1031       C  0.24304531  0.89672688  0.48348305     0.08900
C1032       C  0.23277472  0.90834357  0.46152383    -0.17800
C1033       C  0.12464360  0.53156940  0.53424706    -0.17000
C1034       C  0.12230092  0.52052169  0.51052717     0.07100
C1035       C  0.12230024  0.50841476  0.48230821     0.08900
C1036       C  0.12464088  0.99737024  0.45858676    -0.17800
C1037       C  0.24865741  0.77320384  0.37540966    -0.17000
C1038       C  0.23007971  0.79505716  0.37344997     0.07100
C1039       C  0.21066083  0.82193494  0.37128441     0.08900
C1040       C  0.19707216  0.84626514  0.37128000    -0.17800
C1041       C  0.24705005  0.52322575  0.37545976    -0.17000
C1042       C  0.26564168  0.54507052  0.37349479     0.07100
C1043       C  0.28508737  0.57193472  0.37131941     0.08900
C1044       C  0.29869589  0.59625736  0.37130224    -0.17800
C1045       C  0.81838214  0.57408880  0.78784854    -0.17000
C1046       C  0.81812540  0.57441306  0.76172051     0.07100
C1047       C  0.81807746  0.57442718  0.73111486     0.08900
C1048       C  0.81826611  0.57412270  0.70498619    -0.17800
C1049       C  0.94684642  0.59891395  0.62296628    -0.17000
C1050       C  0.97894805  0.60101334  0.62508769     0.07100
C1051       C  0.01680479  0.60101978  0.62508308     0.08900
C1052       C  0.04890621  0.59892423  0.62295599    -0.17800
C1053       C  0.73283081  0.65844515  0.46151041    -0.17000
C1054       C  0.74311232  0.64683285  0.48346843     0.07100
C1055       C  0.75269970  0.63232203  0.50937171     0.08900
C1056       C  0.76296194  0.62069435  0.53132806    -0.17800
C1057       C  0.74704846  0.75579474  0.61736043    -0.17000
C1058       C  0.76564049  0.73395023  0.61932661     0.07100
C1059       C  0.78508602  0.70708592  0.62150172     0.08900
C1060       C  0.79869409  0.68276298  0.62151799    -0.17800
C1061       C  0.74864321  0.50581954  0.61741500    -0.17000
C1062       C  0.73006585  0.48396613  0.61937824     0.07100
C1063       C  0.71064977  0.95708659  0.62154462     0.08900
C1064       C  0.69706455  0.93275492  0.62154693    -0.17800
C1065       C  0.81843166  0.95493372  0.20495662    -0.17000
C1066       C  0.81816833  0.95461648  0.23108489     0.07100
C1067       C  0.81810449  0.95461809  0.26169080     0.08900
C1068       C  0.81828160  0.95494009  0.28781957    -0.17800
C1069       C  0.94683483  0.93012420  0.36983805    -0.17000
C1070       C  0.97893453  0.92801035  0.36771162     0.07100
C1071       C  0.01679107  0.92798585  0.36771279     0.08900
C1072       C  0.04889352  0.93006721  0.36984158    -0.17800
C1073       C  0.87102245  0.99744570  0.45856896    -0.17000
C1074       C  0.87334719  0.50848015  0.48229607     0.07100
C1075       C  0.87334474  0.52057318  0.51052118     0.08900
C1076       C  0.87101656  0.53161211  0.53424613    -0.17800
C1077       C  0.73277573  0.87068878  0.53129857    -0.17000
C1078       C  0.74304475  0.88230795  0.50933950     0.07100
C1079       C  0.75263404  0.89681267  0.48343267     0.08900
C1080       C  0.76291178  0.90842516  0.46147296    -0.17800
C1081       C  0.69708741  0.59633509  0.37127515    -0.17000
C1082       C  0.71067375  0.57200480  0.37127594     0.07100
C1083       C  0.73009403  0.54512860  0.37343982     0.08900
C1084       C  0.74867316  0.52327704  0.37539983    -0.17800
C1085       C  0.79867855  0.84632801  0.37126279    -0.17000
C1086       C  0.78507673  0.82200369  0.37127539     0.07100
C1087       C  0.76563627  0.79513883  0.37345390     0.08900
C1088       C  0.74704674  0.77329436  0.37542570    -0.17800
loop_ 
_geom_bond_atom_site_label_1 
_geom_bond_atom_site_label_2 
_geom_bond_distance 
_geom_bond_site_symmetry_2 
_ccdc_geom_bond_type 
O1          Cr19   2.013       .  S
O1            C9   1.265       .  A
O2          Cr19   1.974       .  S
O2            C3   1.262       .  A
C3            O4   1.270       .  A
C3          C524   1.436       .  S
O4          Cr20   2.018       .  S
O5          Cr20   1.975       .  S
O5            C6   1.257       .  A
C6            O7   1.263       .  A
C6          C541   1.436       .  S
O7          Cr21   2.008       .  S
O8          Cr21   1.980       .  S
O8            C9   1.259       .  A
C9          C525   1.439       .  S
O10         Cr19   1.982       .  S
O10          C18   1.261       .  A
O11         Cr19   2.006       .  S
O11          C12   1.261       .  A
C12          O13   1.257       .  A
C12        C1084   1.438       .  S
O13         Cr20   1.983       .  S
O14         Cr20   2.019       .  S
O14          C15   1.267       .  A
C15          O16   1.254       .  A
C15         C536   1.430       .  S
O16         Cr21   1.959       .  S
O17         Cr21   2.007       .  S
O17          C18   1.264       .  A
C18         C529   1.435       .  S
Cr19         O22   1.773       .  S
Cr20         O22   1.774       .  S
Cr21         O22   1.772       .  S
O23         Cr41   2.013       .  S
O23          C31   1.265       .  A
O24         Cr41   1.974       .  S
O24          C25   1.262       .  A
C25          O26   1.270       .  A
C25         C504   1.436       .  S
O26         Cr42   2.018       .  S
O27         Cr42   1.975       .  S
O27          C28   1.257       .  A
C28          O29   1.263       .  A
C28         C516   1.436       .  S
O29         Cr43   2.008       .  S
O30         Cr43   1.980       .  S
O30          C31   1.259       .  A
C31         C505   1.439       .  S
O32         Cr41   1.982       .  S
O32          C40   1.261       .  A
O33         Cr41   2.006       .  S
O33          C34   1.261       .  A
C34          O35   1.257       .  A
C34         C517   1.438       .  S
O35         Cr42   1.983       .  S
O36         Cr42   2.019       .  S
O36          C37   1.267       .  A
C37          O38   1.254       .  A
C37         C512   1.430       .  S
O38         Cr43   1.959       .  S
O39         Cr43   2.007       .  S
O39          C40   1.264       .  A
C40         C532   1.435       .  S
Cr41         O44   1.773       .  S
Cr42         O44   1.774       .  S
Cr43         O44   1.772       .  S
O45         Cr63   1.974       .  S
O45          C53   1.262       .  A
O46         Cr63   2.013       .  S
O46          C47   1.265       .  A
C47          O48   1.259       .  A
C47         C528   1.439       .  S
O48         Cr64   1.980       .  S
O49         Cr64   2.008       .  S
O49          C50   1.263       .  A
C50          O51   1.257       .  A
C50         C496   1.436       .  S
O51         Cr65   1.975       .  S
O52         Cr65   2.018       .  S
O52          C53   1.270       .  A
C53         C484   1.436       .  S
O54         Cr63   2.006       .  S
O54          C62   1.261       .  A
O55         Cr63   1.982       .  S
O55          C56   1.261       .  A
C56          O57   1.264       .  A
C56         C492   1.435       .  S
O57         Cr64   2.007       .  S
O58         Cr64   1.959       .  S
O58          C59   1.254       .  A
C59          O60   1.267       .  A
C59         C488   1.430       .  S
O60         Cr65   2.019       .  S
O61         Cr65   1.983       .  S
O61          C62   1.257       .  A
C62        C1041   1.438       .  S
Cr63         O66   1.773       .  S
Cr64         O66   1.772       .  S
Cr65         O66   1.774       .  S
O67         Cr85   1.974       .  S
O67          C75   1.262       .  A
O68         Cr85   2.013       .  S
O68          C69   1.265       .  A
C69          O70   1.259       .  A
C69         C508   1.439       .  S
O70         Cr86   1.980       .  S
O71         Cr86   2.008       .  S
O71          C72   1.263       .  A
C72          O73   1.257       .  A
C72         C473   1.436       .  S
O73         Cr87   1.975       .  S
O74         Cr87   2.018       .  S
O74          C75   1.270       .  A
C75         C465   1.436       .  S
O76         Cr85   2.006       .  S
O76          C84   1.261       .  A
O77         Cr85   1.982       .  S
O77          C78   1.261       .  A
C78          O79   1.264       .  A
C78         C489   1.435       .  S
O79         Cr86   2.007       .  S
O80         Cr86   1.959       .  S
O80          C81   1.254       .  A
C81          O82   1.267       .  A
C81         C480   1.430       .  S
O82         Cr87   2.019       .  S
O83         Cr87   1.983       .  S
O83          C84   1.257       .  A
C84         C469   1.438       .  S
Cr85         O88   1.773       .  S
Cr86         O88   1.772       .  S
Cr87         O88   1.774       .  S
O89        Cr107   2.013       .  S
O89          C97   1.265       .  A
O90        Cr107   1.974       .  S
O90          C91   1.262       .  A
C91          O92   1.270       .  A
C91         C453   1.436       .  S
O92        Cr108   2.018       .  S
O93        Cr108   1.975       .  S
O93          C94   1.257       .  A
C94          O95   1.263       .  A
C94         C500   1.436       .  S
O95        Cr109   2.008       .  S
O96        Cr109   1.980       .  S
O96          C97   1.259       .  A
C97         C457   1.439       .  S
O98        Cr107   1.982       .  S
O98         C106   1.261       .  A
O99        Cr107   2.006       .  S
O99         C100   1.261       .  A
C100        O101   1.257       .  A
C100        C493   1.438       .  S
O101       Cr108   1.983       .  S
O102       Cr108   2.019       .  S
O102        C103   1.267       .  A
C103        O104   1.254       .  A
C103        C477   1.430       .  S
O104       Cr109   1.959       .  S
O105       Cr109   2.007       .  S
O105        C106   1.264       .  A
C106        C464   1.435       .  S
Cr107       O110   1.773       .  S
Cr108       O110   1.774       .  S
Cr109       O110   1.772       .  S
O111       Cr129   2.013       .  S
O111        C119   1.265       .  A
O112       Cr129   1.974       .  S
O112        C113   1.262       .  A
C113        O114   1.270       .  A
C113        C448   1.436       .  S
O114       Cr130   2.018       .  S
O115       Cr130   1.975       .  S
O115        C116   1.257       .  A
C116        O117   1.263       .  A
C116        C472   1.436       .  S
O117       Cr131   2.008       .  S
O118       Cr131   1.980       .  S
O118        C119   1.259       .  A
C119        C449   1.439       .  S
O120       Cr129   1.982       .  S
O120        C128   1.261       .  A
O121       Cr129   2.006       .  S
O121        C122   1.261       .  A
C122        O123   1.257       .  A
C122        C476   1.438       .  S
O123       Cr130   1.983       .  S
O124       Cr130   2.019       .  S
O124        C125   1.267       .  A
C125        O126   1.254       .  A
C125        C485   1.430       .  S
O126       Cr131   1.959       .  S
O127       Cr131   2.007       .  S
O127        C128   1.264       .  A
C128        C461   1.435       .  S
Cr129       O132   1.773       .  S
Cr130       O132   1.774       .  S
Cr131       O132   1.772       .  S
O133       Cr151   1.974       .  S
O133        C141   1.262       .  A
O134       Cr151   2.013       .  S
O134        C135   1.265       .  A
C135        O136   1.259       .  A
C135        C460   1.439       .  S
O136       Cr152   1.980       .  S
O137       Cr152   2.008       .  S
O137        C138   1.263       .  A
C138        O139   1.257       .  A
C138        C537   1.436       .  S
O139       Cr153   1.975       .  S
O140       Cr153   2.018       .  S
O140        C141   1.270       .  A
C141        C440   1.436       .  S
O142       Cr151   2.006       .  S
O142        C150   1.261       .  A
O143       Cr151   1.982       .  S
O143        C144   1.261       .  A
C144        O145   1.264       .  A
C144        C441   1.435       .  S
O145       Cr152   2.007       .  S
O146       Cr152   1.960       .  S
O146        C147   1.254       .  A
C147        O148   1.267       .  A
C147        C509   1.430       .  S
O148       Cr153   2.019       .  S
O149       Cr153   1.983       .  S
O149        C150   1.257       .  A
C150        C544   1.438       .  S
Cr151       O154   1.773       .  S
Cr152       O154   1.772       .  S
Cr153       O154   1.774       .  S
O155       Cr173   1.974       .  S
O155        C163   1.262       .  A
O156       Cr173   2.013       .  S
O156        C157   1.265       .  A
C157        O158   1.259       .  A
C157        C452   1.439       .  S
O158       Cr174   1.980       .  S
O159       Cr174   2.008       .  S
O159        C160   1.263       .  A
C160        O161   1.257       .  A
C160        C520   1.436       .  S
O161       Cr175   1.975       .  S
O162       Cr175   2.018       .  S
O162        C163   1.270       .  A
C163        C433   1.436       .  S
O164       Cr173   2.006       .  S
O164        C172   1.261       .  A
O165       Cr173   1.982       .  S
O165        C166   1.261       .  A
C166        O167   1.264       .  A
C166        C444   1.435       .  S
O167       Cr174   2.007       .  S
O168       Cr174   1.959       .  S
O168        C169   1.254       .  A
C169        O170   1.267       .  A
C169        C533   1.430       .  S
O170       Cr175   2.019       .  S
O171       Cr175   1.983       .  S
O171        C172   1.257       .  A
C172        C513   1.438       .  S
Cr173       O176   1.773       .  S
Cr174       O176   1.772       .  S
Cr175       O176   1.774       .  S
O177       Cr195   1.974       .  S
O177        C185   1.262       .  A
O178       Cr195   2.013       .  S
O178        C179   1.265       .  A
C179        O180   1.259       .  A
C179        C416   1.439       .  S
O180       Cr196   1.980       .  S
O181       Cr196   2.008       .  S
O181        C182   1.263       .  A
C182        O183   1.257       .  A
C182        C429   1.436       .  S
O183       Cr197   1.975       .  S
O184       Cr197   2.018       .  S
O184        C185   1.270       .  A
C185        C521   1.436       .  S
O186       Cr195   2.006       .  S
O186        C194   1.261       .  A
O187       Cr195   1.982       .  S
O187        C188   1.261       .  A
C188        O189   1.264       .  A
C188        C420   1.435       .  S
O189       Cr196   2.007       .  S
O190       Cr196   1.959       .  S
O190        C191   1.254       .  A
C191        O192   1.267       .  A
C191        C421   1.430       .  S
O192       Cr197   2.019       .  S
O193       Cr197   1.983       .  S
O193        C194   1.257       .  A
C194        C969   1.438       .  S
Cr195       O198   1.773       .  S
Cr196       O198   1.772       .  S
Cr197       O198   1.774       .  S
O199       Cr217   1.974       .  S
O199        C207   1.262       .  A
O200       Cr217   2.013       .  S
O200        C201   1.265       .  A
C201        O202   1.259       .  A
C201        C397   1.439       .  S
O202       Cr218   1.980       .  S
O203       Cr218   2.008       .  S
O203        C204   1.263       .  A
C204        O205   1.257       .  A
C204        C405   1.436       .  S
O205       Cr219   1.975       .  S
O206       Cr219   2.018       .  S
O206        C207   1.270       .  A
C207        C501   1.436       .  S
O208       Cr217   2.006       .  S
O208        C216   1.261       .  A
O209       Cr217   1.982       .  S
O209        C210   1.261       .  A
C210        O211   1.264       .  A
C210        C417   1.435       .  S
O211       Cr218   2.007       .  S
O212       Cr218   1.959       .  S
O212        C213   1.254       .  A
C213        O214   1.267       .  A
C213        C404   1.430       .  S
O214       Cr219   2.019       .  S
O215       Cr219   1.983       .  S
O215        C216   1.257       .  A
C216        C409   1.438       .  S
Cr217       O220   1.773       .  S
Cr218       O220   1.772       .  S
Cr219       O220   1.774       .  S
O221       Cr239   2.013       .  S
O221        C229   1.265       .  A
O222       Cr239   1.974       .  S
O222        C223   1.262       .  A
C223        O224   1.270       .  A
C223        C481   1.436       .  S
O224       Cr240   2.018       .  S
O225       Cr240   1.975       .  S
O225        C226   1.257       .  A
C226        O227   1.263       .  A
C226        C389   1.436       .  S
O227       Cr241   2.008       .  S
O228       Cr241   1.980       .  S
O228        C229   1.259       .  A
C229        C413   1.439       .  S
O230       Cr239   1.982       .  S
O230        C238   1.261       .  A
O231       Cr239   2.006       .  S
O231        C232   1.261       .  A
C232        O233   1.257       .  A
C232        C937   1.438       .  S
O233       Cr240   1.983       .  S
O234       Cr240   2.019       .  S
O234        C235   1.267       .  A
C235        O236   1.254       .  A
C235        C384   1.430       .  S
O236       Cr241   1.959       .  S
O237       Cr241   2.007       .  S
O237        C238   1.264       .  A
C238        C385   1.435       .  S
Cr239       O242   1.773       .  S
Cr240       O242   1.774       .  S
Cr241       O242   1.772       .  S
O243       Cr261   2.013       .  S
O243        C251   1.265       .  A
O244       Cr261   1.974       .  S
O244        C245   1.262       .  A
C245        O246   1.270       .  A
C245        C468   1.436       .  S
O246       Cr262   2.018       .  S
O247       Cr262   1.975       .  S
O247        C248   1.257       .  A
C248        O249   1.263       .  A
C248        C373   1.436       .  S
O249       Cr263   2.008       .  S
O250       Cr263   1.980       .  S
O250        C251   1.259       .  A
C251        C400   1.439       .  S
O252       Cr261   1.982       .  S
O252        C260   1.261       .  A
O253       Cr261   2.006       .  S
O253        C254   1.261       .  A
C254        O255   1.257       .  A
C254        C369   1.438       .  S
O255       Cr262   1.983       .  S
O256       Cr262   2.019       .  S
O256        C257   1.267       .  A
C257        O258   1.254       .  A
C257        C380   1.430       .  S
O258       Cr263   1.959       .  S
O259       Cr263   2.007       .  S
O259        C260   1.264       .  A
C260        C388   1.435       .  S
Cr261       O264   1.773       .  S
Cr262       O264   1.774       .  S
Cr263       O264   1.772       .  S
O265       Cr283   1.974       .  S
O265        C273   1.262       .  A
O266       Cr283   2.013       .  S
O266        C267   1.265       .  A
C267        O268   1.259       .  A
C267        C361   1.439       .  S
O268       Cr284   1.980       .  S
O269       Cr284   2.008       .  S
O269        C270   1.263       .  A
C270        O271   1.257       .  A
C270        C396   1.436       .  S
O271       Cr285   1.975       .  S
O272       Cr285   2.018       .  S
O272        C273   1.270       .  A
C273        C456   1.436       .  S
O274       Cr283   2.006       .  S
O274        C282   1.261       .  A
O275       Cr283   1.982       .  S
O275        C276   1.261       .  A
C276        O277   1.264       .  A
C276        C365   1.435       .  S
O277       Cr284   2.007       .  S
O278       Cr284   1.959       .  S
O278        C279   1.254       .  A
C279        O280   1.267       .  A
C279        C377   1.430       .  S
O280       Cr285   2.019       .  S
O281       Cr285   1.983       .  S
O281        C282   1.257       .  A
C282        C392   1.438       .  S
Cr283       O286   1.773       .  S
Cr284       O286   1.772       .  S
Cr285       O286   1.774       .  S
O287       Cr305   1.974       .  S
O287        C295   1.262       .  A
O288       Cr305   2.013       .  S
O288        C289   1.265       .  A
C289        O290   1.259       .  A
C289        C357   1.439       .  S
O290       Cr306   1.980       .  S
O291       Cr306   2.008       .  S
O291        C292   1.263       .  A
C292        O293   1.257       .  A
C292        C372   1.436       .  S
O293       Cr307   1.975       .  S
O294       Cr307   2.018       .  S
O294        C295   1.270       .  A
C295        C445   1.436       .  S
O296       Cr305   2.006       .  S
O296        C304   1.261       .  A
O297       Cr305   1.982       .  S
O297        C298   1.261       .  A
C298        O299   1.264       .  A
C298        C368   1.435       .  S
O299       Cr306   2.007       .  S
O300       Cr306   1.959       .  S
O300        C301   1.254       .  A
C301        O302   1.267       .  A
C301        C381   1.430       .  S
O302       Cr307   2.019       .  S
O303       Cr307   1.983       .  S
O303        C304   1.257       .  A
C304        C376   1.438       .  S
Cr305       O308   1.773       .  S
Cr306       O308   1.772       .  S
Cr307       O308   1.774       .  S
O309       Cr327   2.013       .  S
O309        C317   1.265       .  A
O310       Cr327   1.974       .  S
O310        C311   1.262       .  A
C311        O312   1.270       .  A
C311        C437   1.436       .  S
O312       Cr328   2.018       .  S
O313       Cr328   1.975       .  S
O313        C314   1.257       .  A
C314        O315   1.263       .  A
C314        C428   1.436       .  S
O315       Cr329   2.008       .  S
O316       Cr329   1.980       .  S
O316        C317   1.259       .  A
C317        C364   1.439       .  S
O318       Cr327   1.982       .  S
O318        C326   1.261       .  A
O319       Cr327   2.006       .  S
O319        C320   1.261       .  A
C320        O321   1.257       .  A
C320        C432   1.438       .  S
O321       Cr328   1.983       .  S
O322       Cr328   2.019       .  S
O322        C323   1.267       .  A
C323        O324   1.254       .  A
C323        C401   1.430       .  S
O324       Cr329   1.959       .  S
O325       Cr329   2.007       .  S
O325        C326   1.264       .  A
C326        C356   1.435       .  S
Cr327       O330   1.773       .  S
Cr328       O330   1.774       .  S
Cr329       O330   1.772       .  S
O331       Cr349   2.013       .  S
O331        C339   1.265       .  A
O332       Cr349   1.974       .  S
O332        C333   1.262       .  A
C333        O334   1.270       .  A
C333        C436   1.436       .  S
O334       Cr350   2.018       .  S
O335       Cr350   1.975       .  S
O335        C336   1.257       .  A
C336        O337   1.263       .  A
C336        C412   1.436       .  S
O337       Cr351   2.008       .  S
O338       Cr351   1.980       .  S
O338        C339   1.259       .  A
C339        C360   1.439       .  S
O340       Cr349   1.982       .  S
O340        C348   1.261       .  A
O341       Cr349   2.006       .  S
O341        C342   1.261       .  A
C342        O343   1.257       .  A
C342        C408   1.438       .  S
O343       Cr350   1.983       .  S
O344       Cr350   2.019       .  S
O344        C345   1.267       .  A
C345        O346   1.254       .  A
C345        C424   1.430       .  S
O346       Cr351   1.959       .  S
O347       Cr351   2.007       .  S
O347        C348   1.264       .  A
C348        C353   1.435       .  S
Cr349       O352   1.773       .  S
Cr350       O352   1.774       .  S
Cr351       O352   1.772       .  S
C353        C354   1.206       .  T
C354        C355   1.412   1_556  S
C355        C356   1.206       .  T
C357        C358   1.209       .  T
C358        C359   1.416       .  S
C359        C360   1.209       .  T
C361        C362   1.209       .  T
C362        C363   1.416       .  S
C363        C364   1.209       .  T
C365        C366   1.206       .  T
C366        C367   1.412   1_554  S
C367        C368   1.206       .  T
C369        C370   1.208   1_545  T
C370        C915   1.415       .  S
C371        C372   1.207       .  T
C371        C914   1.415       .  S
C373        C374   1.207       .  T
C374        C375   1.415       .  S
C375        C376   1.208       .  T
C377        C378   1.204       .  T
C378        C379   1.409   1_554  S
C379        C380   1.204       .  T
C381        C382   1.204       .  T
C382        C383   1.409   1_556  S
C383        C384   1.204       .  T
C385        C930   1.206       .  T
C386        C929   1.206   1_545  T
C386        C387   1.412   1_554  S
C387        C388   1.206       .  T
C389        C390   1.207       .  T
C390        C391   1.414       .  S
C391        C392   1.208       .  T
C393        C776   1.438   1_545  S
C393        C394   1.208       .  T
C394        C395   1.414       .  S
C395        C396   1.207       .  T
C397        C398   1.209       .  T
C398        C399   1.416   1_655  S
C399        C400   1.209       .  T
C401        C402   1.204       .  T
C402        C403   1.409   1_554  S
C403        C404   1.204       .  T
C405        C406   1.207       .  T
C406        C407   1.414       .  S
C407        C408   1.208       .  T
C409        C410   1.208   1_545  T
C410        C955   1.414       .  S
C411        C412   1.207       .  T
C411        C954   1.414       .  S
C413        C414   1.209       .  T
C414        C415   1.416   1_455  S
C415        C416   1.209       .  T
C417        C418   1.206       .  T
C418        C419   1.412   1_556  S
C419        C964   1.206   1_545  T
C420        C963   1.206       .  T
C421        C422   1.204       .  T
C422        C423   1.409   1_554  S
C423        C424   1.204       .  T
C425        C738   1.438   1_545  S
C425        C426   1.208       .  T
C426        C427   1.415       .  S
C427        C428   1.207       .  T
C429        C430   1.207       .  T
C430        C431   1.415       .  S
C431        C432   1.208       .  T
C433        C434   1.206       .  T
C434        C435   1.413       .  S
C435        C436   1.206       .  T
C437        C438   1.206       .  T
C438        C439   1.413       .  S
C439        C440   1.206       .  T
C441        C442   1.206       .  T
C442        C443   1.412       .  S
C443        C444   1.206       .  T
C445        C446   1.206       .  T
C446        C447   1.413       .  S
C447        C448   1.206       .  T
C449        C450   1.209       .  T
C450        C451   1.416       .  S
C451        C452   1.209       .  T
C453        C454   1.206       .  T
C454        C455   1.413       .  S
C455        C456   1.206       .  T
C457        C458   1.209       .  T
C458        C459   1.416       .  S
C459        C460   1.209       .  T
C461        C462   1.206       .  T
C462        C463   1.412       .  S
C463        C464   1.206       .  T
C465        C466   1.206       .  T
C466        C467   1.413       .  S
C467        C468   1.206       .  T
C469        C470   1.208   1_545  T
C470       C1015   1.414       .  S
C471        C472   1.207       .  T
C471       C1014   1.414       .  S
C473        C474   1.207       .  T
C474        C475   1.414       .  S
C475        C476   1.208       .  T
C477        C478   1.204       .  T
C478        C479   1.409       .  S
C479        C480   1.204       .  T
C481        C482   1.206       .  T
C482        C483   1.413       .  S
C483        C484   1.206       .  T
C485        C486   1.204       .  T
C486        C487   1.409       .  S
C487        C488   1.204       .  T
C489        C490   1.206       .  T
C490        C491   1.412       .  S
C491       C1036   1.206   1_545  T
C492       C1035   1.206       .  T
C493        C494   1.208       .  T
C494        C495   1.415       .  S
C495        C496   1.207       .  T
C497        C606   1.438   1_545  S
C497        C498   1.208       .  T
C498        C499   1.415       .  S
C499        C500   1.207       .  T
C501        C502   1.206       .  T
C502        C503   1.413       .  S
C503        C504   1.206       .  T
C505        C506   1.209       .  T
C506        C507   1.416   1_655  S
C507        C508   1.209       .  T
C509        C510   1.204       .  T
C510        C511   1.409       .  S
C511        C512   1.204       .  T
C513        C514   1.208       .  T
C514        C515   1.415       .  S
C515        C516   1.207       .  T
C517        C518   1.208   1_545  T
C518       C1063   1.415       .  S
C519        C520   1.207       .  T
C519       C1062   1.415       .  S
C521        C522   1.206       .  T
C522        C523   1.413       .  S
C523        C524   1.206       .  T
C525        C526   1.209       .  T
C526        C527   1.416   1_655  S
C527        C528   1.209       .  T
C529       C1074   1.206       .  T
C530       C1073   1.206   1_545  T
C530        C531   1.412       .  S
C531        C532   1.206       .  T
C533        C534   1.204       .  T
C534        C535   1.409       .  S
C535        C536   1.204       .  T
C537        C538   1.207       .  T
C538        C539   1.414       .  S
C539        C540   1.208       .  T
C540        C556   1.438   1_545  S
C541        C542   1.207       .  T
C542        C543   1.414       .  S
C543        C544   1.208       .  T
O545       Cr563   2.013       .  S
O545        C553   1.265       .  A
O546       Cr563   1.974       .  S
O546        C547   1.262       .  A
C547        O548   1.270       .  A
C547       C1068   1.436       .  S
O548       Cr564   2.018       .  S
O549       Cr564   1.975       .  S
O549        C550   1.257       .  A
C550        O551   1.263       .  A
C550       C1085   1.436       .  S
O551       Cr565   2.008       .  S
O552       Cr565   1.980       .  S
O552        C553   1.259       .  A
C553       C1069   1.439       .  S
O554       Cr563   1.982       .  S
O554        C562   1.261       .  A
O555       Cr563   2.006   1_545  S
O555        C556   1.261   1_545  A
C556        O557   1.257       .  A
O557       Cr564   1.983       .  S
O558       Cr564   2.019       .  S
O558        C559   1.267       .  A
C559        O560   1.254       .  A
C559       C1080   1.430       .  S
O560       Cr565   1.959       .  S
O561       Cr565   2.007       .  S
O561        C562   1.264       .  A
C562       C1073   1.435       .  S
Cr563       O566   1.773       .  S
Cr564       O566   1.774       .  S
Cr565       O566   1.772       .  S
O567       Cr585   2.013       .  S
O567        C575   1.265       .  A
O568       Cr585   1.974       .  S
O568        C569   1.262       .  A
C569        O570   1.270       .  A
C569       C1048   1.436       .  S
O570       Cr586   2.018       .  S
O571       Cr586   1.975       .  S
O571        C572   1.257       .  A
C572        O573   1.263       .  A
C572       C1060   1.436       .  S
O573       Cr587   2.008       .  S
O574       Cr587   1.980       .  S
O574        C575   1.259       .  A
C575       C1049   1.439       .  S
O576       Cr585   1.982       .  S
O576        C584   1.261       .  A
O577       Cr585   2.006       .  S
O577        C578   1.261       .  A
C578        O579   1.257       .  A
C578       C1061   1.438       .  S
O579       Cr586   1.983       .  S
O580       Cr586   2.019       .  S
O580        C581   1.267       .  A
C581        O582   1.254       .  A
C581       C1056   1.430       .  S
O582       Cr587   1.959       .  S
O583       Cr587   2.007       .  S
O583        C584   1.264       .  A
C584       C1076   1.435       .  S
Cr585       O588   1.773       .  S
Cr586       O588   1.774       .  S
Cr587       O588   1.772       .  S
O589       Cr607   1.974       .  S
O589        C597   1.262       .  A
O590       Cr607   2.013       .  S
O590        C591   1.265       .  A
C591        O592   1.259       .  A
C591       C1072   1.439       .  S
O592       Cr608   1.980       .  S
O593       Cr608   2.008       .  S
O593        C594   1.263       .  A
C594        O595   1.257       .  A
C594       C1040   1.436       .  S
O595       Cr609   1.975       .  S
O596       Cr609   2.018       .  S
O596        C597   1.270       .  A
C597       C1028   1.436       .  S
O598       Cr607   2.006   1_545  S
O598        C606   1.261   1_545  A
O599       Cr607   1.982       .  S
O599        C600   1.261       .  A
C600        O601   1.264       .  A
C600       C1036   1.435       .  S
O601       Cr608   2.007       .  S
O602       Cr608   1.959       .  S
O602        C603   1.254       .  A
C603        O604   1.267       .  A
C603       C1032   1.430       .  S
O604       Cr609   2.019       .  S
O605       Cr609   1.983       .  S
O605        C606   1.257       .  A
Cr607       O610   1.773       .  S
Cr608       O610   1.772       .  S
Cr609       O610   1.774       .  S
O611       Cr629   1.974       .  S
O611        C619   1.262       .  A
O612       Cr629   2.013       .  S
O612        C613   1.265       .  A
C613        O614   1.259       .  A
C613       C1052   1.439       .  S
O614       Cr630   1.980       .  S
O615       Cr630   2.008       .  S
O615        C616   1.263       .  A
C616        O617   1.257       .  A
C616       C1017   1.436       .  S
O617       Cr631   1.975       .  S
O618       Cr631   2.018       .  S
O618        C619   1.270       .  A
C619       C1009   1.436       .  S
O620       Cr629   2.006       .  S
O620        C628   1.261       .  A
O621       Cr629   1.982       .  S
O621        C622   1.261       .  A
C622        O623   1.264       .  A
C622       C1033   1.435       .  S
O623       Cr630   2.007       .  S
O624       Cr630   1.959       .  S
O624        C625   1.254       .  A
C625        O626   1.267       .  A
C625       C1024   1.430       .  S
O626       Cr631   2.019       .  S
O627       Cr631   1.983       .  S
O627        C628   1.257       .  A
C628       C1013   1.438       .  S
Cr629       O632   1.773       .  S
Cr630       O632   1.772       .  S
Cr631       O632   1.774       .  S
O633       Cr651   2.013       .  S
O633        C641   1.265       .  A
O634       Cr651   1.974       .  S
O634        C635   1.262       .  A
C635        O636   1.270       .  A
C635        C997   1.436       .  S
O636       Cr652   2.018       .  S
O637       Cr652   1.975       .  S
O637        C638   1.257       .  A
C638        O639   1.263       .  A
C638       C1044   1.436       .  S
O639       Cr653   2.008       .  S
O640       Cr653   1.980       .  S
O640        C641   1.259       .  A
C641       C1001   1.439       .  S
O642       Cr651   1.982       .  S
O642        C650   1.261       .  A
O643       Cr651   2.006       .  S
O643        C644   1.261       .  A
C644        O645   1.257       .  A
C644       C1037   1.438       .  S
O645       Cr652   1.983       .  S
O646       Cr652   2.019       .  S
O646        C647   1.267       .  A
C647        O648   1.254       .  A
C647       C1021   1.430       .  S
O648       Cr653   1.959       .  S
O649       Cr653   2.007       .  S
O649        C650   1.264       .  A
C650       C1008   1.435       .  S
Cr651       O654   1.773       .  S
Cr652       O654   1.774       .  S
Cr653       O654   1.772       .  S
O655       Cr673   2.013       .  S
O655        C663   1.265       .  A
O656       Cr673   1.974       .  S
O656        C657   1.262       .  A
C657        O658   1.270       .  A
C657        C992   1.436       .  S
O658       Cr674   2.018       .  S
O659       Cr674   1.975       .  S
O659        C660   1.257       .  A
C660        O661   1.263       .  A
C660       C1016   1.436       .  S
O661       Cr675   2.008       .  S
O662       Cr675   1.980       .  S
O662        C663   1.259       .  A
C663        C993   1.439       .  S
O664       Cr673   1.982       .  S
O664        C672   1.261       .  A
O665       Cr673   2.006       .  S
O665        C666   1.261       .  A
C666        O667   1.257       .  A
C666       C1020   1.438       .  S
O667       Cr674   1.983       .  S
O668       Cr674   2.019       .  S
O668        C669   1.267       .  A
C669        O670   1.254       .  A
C669       C1029   1.430       .  S
O670       Cr675   1.959       .  S
O671       Cr675   2.007       .  S
O671        C672   1.264       .  A
C672       C1005   1.435       .  S
Cr673       O676   1.773       .  S
Cr674       O676   1.774       .  S
Cr675       O676   1.772       .  S
O677       Cr695   1.974       .  S
O677        C685   1.262       .  A
O678       Cr695   2.013       .  S
O678        C679   1.265       .  A
C679        O680   1.259       .  A
C679       C1004   1.439       .  S
O680       Cr696   1.980       .  S
O681       Cr696   2.008       .  S
O681        C682   1.263       .  A
C682        O683   1.257       .  A
C682       C1081   1.436       .  S
O683       Cr697   1.975       .  S
O684       Cr697   2.018       .  S
O684        C685   1.270       .  A
C685        C984   1.436       .  S
O686       Cr695   2.006       .  S
O686        C694   1.261       .  A
O687       Cr695   1.982       .  S
O687        C688   1.261       .  A
C688        O689   1.264       .  A
C688        C985   1.435       .  S
O689       Cr696   2.007       .  S
O690       Cr696   1.960       .  S
O690        C691   1.254       .  A
C691        O692   1.267       .  A
C691       C1053   1.430       .  S
O692       Cr697   2.019       .  S
O693       Cr697   1.983       .  S
O693        C694   1.257       .  A
C694       C1088   1.438       .  S
Cr695       O698   1.773       .  S
Cr696       O698   1.772       .  S
Cr697       O698   1.774       .  S
O699       Cr717   1.974       .  S
O699        C707   1.262       .  A
O700       Cr717   2.013       .  S
O700        C701   1.265       .  A
C701        O702   1.259       .  A
C701        C996   1.439       .  S
O702       Cr718   1.980       .  S
O703       Cr718   2.008       .  S
O703        C704   1.263       .  A
C704        O705   1.257       .  A
C704       C1064   1.436       .  S
O705       Cr719   1.975       .  S
O706       Cr719   2.018       .  S
O706        C707   1.270       .  A
C707        C977   1.436       .  S
O708       Cr717   2.006       .  S
O708        C716   1.261       .  A
O709       Cr717   1.982       .  S
O709        C710   1.261       .  A
C710        O711   1.264       .  A
C710        C988   1.435       .  S
O711       Cr718   2.007       .  S
O712       Cr718   1.959       .  S
O712        C713   1.254       .  A
C713        O714   1.267       .  A
C713       C1077   1.430       .  S
O714       Cr719   2.019       .  S
O715       Cr719   1.983       .  S
O715        C716   1.257       .  A
C716       C1057   1.438       .  S
Cr717       O720   1.773       .  S
Cr718       O720   1.772       .  S
Cr719       O720   1.774       .  S
O721       Cr739   1.974       .  S
O721        C729   1.262       .  A
O722       Cr739   2.013       .  S
O722        C723   1.265       .  A
C723        O724   1.259       .  A
C723        C960   1.439       .  S
O724       Cr740   1.980       .  S
O725       Cr740   2.008       .  S
O725        C726   1.263       .  A
C726        O727   1.257       .  A
C726        C973   1.436       .  S
O727       Cr741   1.975       .  S
O728       Cr741   2.018       .  S
O728        C729   1.270       .  A
C729       C1065   1.436       .  S
O730       Cr739   2.006   1_545  S
O730        C738   1.261   1_545  A
O731       Cr739   1.982       .  S
O731        C732   1.261       .  A
C732        O733   1.264       .  A
C732        C964   1.435       .  S
O733       Cr740   2.007       .  S
O734       Cr740   1.959       .  S
O734        C735   1.254       .  A
C735        O736   1.267       .  A
C735        C965   1.430       .  S
O736       Cr741   2.019       .  S
O737       Cr741   1.983       .  S
O737        C738   1.257       .  A
Cr739       O742   1.773       .  S
Cr740       O742   1.772       .  S
Cr741       O742   1.774       .  S
O743       Cr761   1.974       .  S
O743        C751   1.262       .  A
O744       Cr761   2.013       .  S
O744        C745   1.265       .  A
C745        O746   1.259       .  A
C745        C941   1.439       .  S
O746       Cr762   1.980       .  S
O747       Cr762   2.008       .  S
O747        C748   1.263       .  A
C748        O749   1.257       .  A
C748        C949   1.436       .  S
O749       Cr763   1.975       .  S
O750       Cr763   2.018       .  S
O750        C751   1.270       .  A
C751       C1045   1.436       .  S
O752       Cr761   2.006       .  S
O752        C760   1.261       .  A
O753       Cr761   1.982       .  S
O753        C754   1.261       .  A
C754        O755   1.264       .  A
C754        C961   1.435       .  S
O755       Cr762   2.007       .  S
O756       Cr762   1.959       .  S
O756        C757   1.254       .  A
C757        O758   1.267       .  A
C757        C948   1.430       .  S
O758       Cr763   2.019       .  S
O759       Cr763   1.983       .  S
O759        C760   1.257       .  A
C760        C953   1.438       .  S
Cr761       O764   1.773       .  S
Cr762       O764   1.772       .  S
Cr763       O764   1.774       .  S
O765       Cr783   2.013       .  S
O765        C773   1.265       .  A
O766       Cr783   1.974       .  S
O766        C767   1.262       .  A
C767        O768   1.270       .  A
C767       C1025   1.436       .  S
O768       Cr784   2.018       .  S
O769       Cr784   1.975       .  S
O769        C770   1.257       .  A
C770        O771   1.263       .  A
C770        C933   1.436       .  S
O771       Cr785   2.008       .  S
O772       Cr785   1.980       .  S
O772        C773   1.259       .  A
C773        C957   1.439       .  S
O774       Cr783   1.982       .  S
O774        C782   1.261       .  A
O775       Cr783   2.006   1_545  S
O775        C776   1.261   1_545  A
C776        O777   1.257       .  A
O777       Cr784   1.983       .  S
O778       Cr784   2.019       .  S
O778        C779   1.267       .  A
C779        O780   1.254       .  A
C779        C928   1.430       .  S
O780       Cr785   1.959       .  S
O781       Cr785   2.007       .  S
O781        C782   1.264       .  A
C782        C929   1.435       .  S
Cr783       O786   1.773       .  S
Cr784       O786   1.774       .  S
Cr785       O786   1.772       .  S
O787       Cr805   2.013       .  S
O787        C795   1.265       .  A
O788       Cr805   1.974       .  S
O788        C789   1.262       .  A
C789        O790   1.270       .  A
C789       C1012   1.436       .  S
O790       Cr806   2.018       .  S
O791       Cr806   1.975       .  S
O791        C792   1.257       .  A
C792        O793   1.263       .  A
C792        C917   1.436       .  S
O793       Cr807   2.008       .  S
O794       Cr807   1.980       .  S
O794        C795   1.259       .  A
C795        C944   1.439       .  S
O796       Cr805   1.982       .  S
O796        C804   1.261       .  A
O797       Cr805   2.006       .  S
O797        C798   1.261       .  A
C798        O799   1.257       .  A
C798        C913   1.438       .  S
O799       Cr806   1.983       .  S
O800       Cr806   2.019       .  S
O800        C801   1.267       .  A
C801        O802   1.254       .  A
C801        C924   1.430       .  S
O802       Cr807   1.959       .  S
O803       Cr807   2.007       .  S
O803        C804   1.264       .  A
C804        C932   1.435       .  S
Cr805       O808   1.773       .  S
Cr806       O808   1.774       .  S
Cr807       O808   1.772       .  S
O809       Cr827   1.974       .  S
O809        C817   1.262       .  A
O810       Cr827   2.013       .  S
O810        C811   1.265       .  A
C811        O812   1.259       .  A
C811        C905   1.439       .  S
O812       Cr828   1.980       .  S
O813       Cr828   2.008       .  S
O813        C814   1.263       .  A
C814        O815   1.257       .  A
C814        C940   1.436       .  S
O815       Cr829   1.975       .  S
O816       Cr829   2.018       .  S
O816        C817   1.270       .  A
C817       C1000   1.436       .  S
O818       Cr827   2.006       .  S
O818        C826   1.261       .  A
O819       Cr827   1.982       .  S
O819        C820   1.261       .  A
C820        O821   1.264       .  A
C820        C909   1.435       .  S
O821       Cr828   2.007       .  S
O822       Cr828   1.959       .  S
O822        C823   1.254       .  A
C823        O824   1.267       .  A
C823        C921   1.430       .  S
O824       Cr829   2.019       .  S
O825       Cr829   1.983       .  S
O825        C826   1.257       .  A
C826        C936   1.438       .  S
Cr827       O830   1.773       .  S
Cr828       O830   1.772       .  S
Cr829       O830   1.774       .  S
O831       Cr849   1.974       .  S
O831        C839   1.262       .  A
O832       Cr849   2.013       .  S
O832        C833   1.265       .  A
C833        O834   1.259       .  A
C833        C901   1.439       .  S
O834       Cr850   1.980       .  S
O835       Cr850   2.008       .  S
O835        C836   1.263       .  A
C836        O837   1.257       .  A
C836        C916   1.436       .  S
O837       Cr851   1.975       .  S
O838       Cr851   2.018       .  S
O838        C839   1.270       .  A
C839        C989   1.436       .  S
O840       Cr849   2.006       .  S
O840        C848   1.261       .  A
O841       Cr849   1.982       .  S
O841        C842   1.261       .  A
C842        O843   1.264       .  A
C842        C912   1.435       .  S
O843       Cr850   2.007       .  S
O844       Cr850   1.959       .  S
O844        C845   1.254       .  A
C845        O846   1.267       .  A
C845        C925   1.430       .  S
O846       Cr851   2.019       .  S
O847       Cr851   1.983       .  S
O847        C848   1.257       .  A
C848        C920   1.438       .  S
Cr849       O852   1.773       .  S
Cr850       O852   1.772       .  S
Cr851       O852   1.774       .  S
O853       Cr871   2.013       .  S
O853        C861   1.265       .  A
O854       Cr871   1.974       .  S
O854        C855   1.262       .  A
C855        O856   1.270       .  A
C855        C981   1.436       .  S
O856       Cr872   2.018       .  S
O857       Cr872   1.975       .  S
O857        C858   1.257       .  A
C858        O859   1.263       .  A
C858        C972   1.436       .  S
O859       Cr873   2.008       .  S
O860       Cr873   1.980       .  S
O860        C861   1.259       .  A
C861        C908   1.439       .  S
O862       Cr871   1.982       .  S
O862        C870   1.261       .  A
O863       Cr871   2.006       .  S
O863        C864   1.261       .  A
C864        O865   1.257       .  A
C864        C976   1.438       .  S
O865       Cr872   1.983       .  S
O866       Cr872   2.019       .  S
O866        C867   1.267       .  A
C867        O868   1.254       .  A
C867        C945   1.430       .  S
O868       Cr873   1.959       .  S
O869       Cr873   2.007       .  S
O869        C870   1.264       .  A
C870        C900   1.435       .  S
Cr871       O874   1.773       .  S
Cr872       O874   1.774       .  S
Cr873       O874   1.772       .  S
O875       Cr893   2.013       .  S
O875        C883   1.265       .  A
O876       Cr893   1.974       .  S
O876        C877   1.262       .  A
C877        O878   1.270       .  A
C877        C980   1.436       .  S
O878       Cr894   2.018       .  S
O879       Cr894   1.975       .  S
O879        C880   1.257       .  A
C880        O881   1.263       .  A
C880        C956   1.436       .  S
O881       Cr895   2.008       .  S
O882       Cr895   1.980       .  S
O882        C883   1.259       .  A
C883        C904   1.439       .  S
O884       Cr893   1.982       .  S
O884        C892   1.261       .  A
O885       Cr893   2.006       .  S
O885        C886   1.261       .  A
C886        O887   1.257       .  A
C886        C952   1.438       .  S
O887       Cr894   1.983       .  S
O888       Cr894   2.019       .  S
O888        C889   1.267       .  A
C889        O890   1.254       .  A
C889        C968   1.430       .  S
O890       Cr895   1.959       .  S
O891       Cr895   2.007       .  S
O891        C892   1.264       .  A
C892        C897   1.435       .  S
Cr893       O896   1.773       .  S
Cr894       O896   1.774       .  S
Cr895       O896   1.772       .  S
C897        C898   1.206       .  T
C898        C899   1.412   1_556  S
C899        C900   1.206       .  T
C901        C902   1.209       .  T
C902        C903   1.416       .  S
C903        C904   1.209       .  T
C905        C906   1.209       .  T
C906        C907   1.416       .  S
C907        C908   1.209       .  T
C909        C910   1.206       .  T
C910        C911   1.412   1_554  S
C911        C912   1.206       .  T
C913        C914   1.208       .  T
C915        C916   1.207       .  T
C917        C918   1.207       .  T
C918        C919   1.415       .  S
C919        C920   1.208       .  T
C921        C922   1.204       .  T
C922        C923   1.409   1_554  S
C923        C924   1.204       .  T
C925        C926   1.204       .  T
C926        C927   1.409   1_556  S
C927        C928   1.204       .  T
C930        C931   1.412   1_554  S
C931        C932   1.206       .  T
C933        C934   1.207       .  T
C934        C935   1.414       .  S
C935        C936   1.208       .  T
C937        C938   1.208       .  T
C938        C939   1.414       .  S
C939        C940   1.207       .  T
C941        C942   1.209       .  T
C942        C943   1.416   1_655  S
C943        C944   1.209       .  T
C945        C946   1.204       .  T
C946        C947   1.409   1_554  S
C947        C948   1.204       .  T
C949        C950   1.207       .  T
C950        C951   1.414       .  S
C951        C952   1.208       .  T
C953        C954   1.208       .  T
C955        C956   1.207       .  T
C957        C958   1.209       .  T
C958        C959   1.416   1_455  S
C959        C960   1.209       .  T
C961        C962   1.206       .  T
C962        C963   1.412   1_556  S
C965        C966   1.204       .  T
C966        C967   1.409   1_554  S
C967        C968   1.204       .  T
C969        C970   1.208       .  T
C970        C971   1.415       .  S
C971        C972   1.207       .  T
C973        C974   1.207       .  T
C974        C975   1.415       .  S
C975        C976   1.208       .  T
C977        C978   1.206       .  T
C978        C979   1.413       .  S
C979        C980   1.206       .  T
C981        C982   1.206       .  T
C982        C983   1.413       .  S
C983        C984   1.206       .  T
C985        C986   1.206       .  T
C986        C987   1.412       .  S
C987        C988   1.206       .  T
C989        C990   1.206       .  T
C990        C991   1.413       .  S
C991        C992   1.206       .  T
C993        C994   1.209       .  T
C994        C995   1.416       .  S
C995        C996   1.209       .  T
C997        C998   1.206       .  T
C998        C999   1.413       .  S
C999       C1000   1.206       .  T
C1001      C1002   1.209       .  T
C1002      C1003   1.416       .  S
C1003      C1004   1.209       .  T
C1005      C1006   1.206       .  T
C1006      C1007   1.412       .  S
C1007      C1008   1.206       .  T
C1009      C1010   1.206       .  T
C1010      C1011   1.413       .  S
C1011      C1012   1.206       .  T
C1013      C1014   1.208       .  T
C1015      C1016   1.207       .  T
C1017      C1018   1.207       .  T
C1018      C1019   1.414       .  S
C1019      C1020   1.208       .  T
C1021      C1022   1.204       .  T
C1022      C1023   1.409       .  S
C1023      C1024   1.204       .  T
C1025      C1026   1.206       .  T
C1026      C1027   1.413       .  S
C1027      C1028   1.206       .  T
C1029      C1030   1.204       .  T
C1030      C1031   1.409       .  S
C1031      C1032   1.204       .  T
C1033      C1034   1.206       .  T
C1034      C1035   1.412       .  S
C1037      C1038   1.208       .  T
C1038      C1039   1.415       .  S
C1039      C1040   1.207       .  T
C1041      C1042   1.208       .  T
C1042      C1043   1.415       .  S
C1043      C1044   1.207       .  T
C1045      C1046   1.206       .  T
C1046      C1047   1.413       .  S
C1047      C1048   1.206       .  T
C1049      C1050   1.209       .  T
C1050      C1051   1.416   1_655  S
C1051      C1052   1.209       .  T
C1053      C1054   1.204       .  T
C1054      C1055   1.409       .  S
C1055      C1056   1.204       .  T
C1057      C1058   1.208       .  T
C1058      C1059   1.415       .  S
C1059      C1060   1.207       .  T
C1061      C1062   1.208       .  T
C1063      C1064   1.207       .  T
C1065      C1066   1.206       .  T
C1066      C1067   1.413       .  S
C1067      C1068   1.206       .  T
C1069      C1070   1.209       .  T
C1070      C1071   1.416   1_655  S
C1071      C1072   1.209       .  T
C1074      C1075   1.412       .  S
C1075      C1076   1.206       .  T
C1077      C1078   1.204       .  T
C1078      C1079   1.409       .  S
C1079      C1080   1.204       .  T
C1081      C1082   1.207       .  T
C1082      C1083   1.414       .  S
C1083      C1084   1.208       .  T
C1085      C1086   1.207       .  T
C1086      C1087   1.414       .  S
C1087      C1088   1.208       .  T
