geometry optimzed in LAMMPS
_audit_creation_date              2020-12-01 
_audit_creation_method            'lammps2cif' 
_symmetry_space_group_name_H-M    'P1' 
_symmetry_Int_Tables_number       1 
_symmetry_cell_setting            triclinic 
loop_ 
_symmetry_equiv_pos_as_xyz 
  x,y,z 
_cell_length_a                    51.53821473 
_cell_length_b                    29.246707225186334 
_cell_length_c                    116.16829186890887 
_cell_angle_alpha                 90.08004504519256 
_cell_angle_beta                  89.6486339550052 
_cell_angle_gamma                 90.49399015341203 
loop_ 
_atom_site_label 
_atom_site_type_symbol 
_atom_site_fract_x 
_atom_site_fract_y 
_atom_site_fract_z 
_atom_site_charge 
O1          O  0.70705450  0.02680760  0.17855243    -0.74600
O2          O  0.77485942  0.97416225  0.17343016    -0.74600
O3          O  0.73859538  0.01634505  0.15998021    -0.74700
O4          O  0.74376456  0.98766595  0.19175292    -0.74700
O5          O  0.72569511  0.91924843  0.18878949    -0.74600
O6          O  0.71994291  0.94873043  0.15637834    -0.74600
O7          O  0.75566208  0.90704115  0.16982478    -0.74600
O8          O  0.68946620  0.95819335  0.17533969    -0.74700
Ni9        Ni  0.74176703  0.00369683  0.17598521     1.25400
Ni10       Ni  0.72206625  0.93090708  0.17243164     1.25400
C11         C  0.68706366  0.00023180  0.17806042     0.87600
C12         C  0.77614969  0.93119177  0.17114116     0.87500
C13         C  0.72806703  0.98817521  0.15298055     0.87600
C14         C  0.73567750  0.94922491  0.19561277     0.87700
O15         O  0.75134563  0.84763466  0.29933682    -0.74600
O16         O  0.68917432  0.92017251  0.30302353    -0.74600
O17         O  0.72141640  0.89865191  0.28534451    -0.74700
O18         O  0.71837146  0.86673770  0.31703916    -0.74700
O19         O  0.74280687  0.92711742  0.32163642    -0.74600
O20         O  0.74618601  0.95948622  0.28940854    -0.74600
O21         O  0.71429207  0.97994675  0.30735080    -0.74600
O22         O  0.77486021  0.90950943  0.30372018    -0.74700
Ni23       Ni  0.71914718  0.88109552  0.30106052     1.25400
Ni24       Ni  0.74528994  0.94621186  0.30570534     1.25400
C25         C  0.77345421  0.86762336  0.30071838     0.87600
C26         C  0.69177637  0.96262107  0.30573617     0.87500
C27         C  0.73470672  0.93336771  0.28210475     0.87600
C28         C  0.73023868  0.89077815  0.32458855     0.87700
O29         O  0.97952752  0.58915291  0.18281175    -0.74600
O30         O  0.91983576  0.66586951  0.17758412    -0.74600
O31         O  0.95118121  0.61278658  0.16423349    -0.74700
O32         O  0.94753044  0.63961130  0.19610791    -0.74700
O33         O  0.97310548  0.70069454  0.19380294    -0.74600
O34         O  0.97842260  0.67133669  0.16142750    -0.74600
O35         O  0.94675071  0.72456507  0.17461544    -0.74600
O36         O  0.00498408  0.65071774  0.18059894    -0.74700
Ni37       Ni  0.94851154  0.62475050  0.18024371     1.25400
Ni38       Ni  0.97663842  0.68906422  0.17747276     1.25400
C39         C  0.00207315  0.60831470  0.18278098     0.87600
C40         C  0.92367905  0.70852342  0.17540677     0.87500
C41         C  0.96603283  0.63615704  0.15761587     0.87600
C42         C  0.95979869  0.67373144  0.20033394     0.87700
O43         O  0.97350253  0.75309393  0.30185123    -0.74600
O44         O  0.03372460  0.67617823  0.30434320    -0.74600
O45         O  0.99917711  0.69605029  0.28775201    -0.74700
O46         O  0.00866934  0.73575216  0.31858700    -0.74700
O47         O  0.98425847  0.67808728  0.32511692    -0.74600
O48         O  0.97259050  0.64006777  0.29368907    -0.74600
O49         O  0.00796082  0.61927799  0.31018722    -0.74600
O50         O  0.94905336  0.69589669  0.30875318    -0.74700
Ni51       Ni  0.00475844  0.71727139  0.30295748     1.25400
Ni52       Ni  0.97771571  0.65611493  0.30968178     1.25400
C53         C  0.95129547  0.73636206  0.30477829     0.87600
C54         C  0.03053879  0.63437714  0.30746825     0.87500
C55         C  0.98358353  0.66311704  0.28558693     0.87600
C56         C  0.99778089  0.71450233  0.32694877     0.87700
O57         O  0.48198487  0.21390302  0.19602700    -0.74600
O58         O  0.47892289  0.18735625  0.16340936    -0.74600
O59         O  0.45101459  0.24082412  0.17828469    -0.74700
O60         O  0.50965047  0.16404086  0.18110428    -0.74700
O61         O  0.48396374  0.10354594  0.18439830    -0.74600
O62         O  0.42428735  0.18248558  0.18185523    -0.74600
O63         O  0.45217358  0.12903217  0.16721505    -0.74600
O64         O  0.45574174  0.15435476  0.19919391    -0.74700
Ni65       Ni  0.48114197  0.20387437  0.17955199     1.25400
Ni66       Ni  0.45298553  0.14042283  0.18328501     1.25400
C67         C  0.47052617  0.18611000  0.20300377     0.87600
C68         C  0.46570430  0.15230927  0.16005294     0.87500
C69         C  0.42797300  0.22511751  0.17957986     0.87600
C70         C  0.50666403  0.12162185  0.18329771     0.87700
O71         O  0.47967996  0.29068997  0.30600635    -0.74600
O72         O  0.54661068  0.23304884  0.30819834    -0.74600
O73         O  0.51156627  0.24556242  0.29147846    -0.74700
O74         O  0.51508964  0.28095929  0.32288760    -0.74700
O75         O  0.49541199  0.21649088  0.32835889    -0.74600
O76         O  0.49198940  0.18003480  0.29633765    -0.74600
O77         O  0.52660594  0.16852120  0.31362630    -0.74600
O78         O  0.46100602  0.22480548  0.31133498    -0.74700
Ni79       Ni  0.51401126  0.26488158  0.30700414     1.25400
Ni80       Ni  0.49319888  0.19501967  0.31260855     1.25400
C81         C  0.45937899  0.26659808  0.30836776     0.87600
C82         C  0.54726111  0.19064173  0.31102930     0.87500
C83         C  0.50105498  0.20758206  0.28864075     0.87600
C84         C  0.50492104  0.25610588  0.33079610     0.87700
O85         O  0.20576132  0.53308265  0.18678678    -0.74600
O86         O  0.27260576  0.47648836  0.18180137    -0.74600
O87         O  0.23920623  0.52635459  0.16878435    -0.74700
O88         O  0.23974333  0.48588296  0.19986651    -0.74700
O89         O  0.21990840  0.42075183  0.19486189    -0.74600
O90         O  0.21909879  0.46256209  0.16320868    -0.74600
O91         O  0.25208852  0.41279406  0.17631498    -0.74600
O92         O  0.18677799  0.46745121  0.18161965    -0.74700
Ni93       Ni  0.24007300  0.50778429  0.18446545     1.25400
Ni94       Ni  0.21883826  0.43858124  0.17878938     1.25400
C95         C  0.18524634  0.50862813  0.18515979     0.87600
C96         C  0.27310521  0.43472482  0.17831348     0.87500
C97         C  0.22882822  0.50215151  0.16084946     0.87600
C98         C  0.22977864  0.44723917  0.20255338     0.87700
O99         O  0.25224076  0.32647251  0.30648192    -0.74600
O100        O  0.18361676  0.37858536  0.30870120    -0.74600
O101        O  0.21958072  0.36757746  0.29183953    -0.74700
O102        O  0.21582911  0.33452723  0.32346574    -0.74700
O103        O  0.23403050  0.40065253  0.32862218    -0.74600
O104        O  0.23600636  0.43596451  0.29634466    -0.74600
O105        O  0.20175674  0.44469416  0.31405123    -0.74600
O106        O  0.26876251  0.39474102  0.31098646    -0.74700
Ni107      Ni  0.21715165  0.34937011  0.30749559     1.25400
Ni108      Ni  0.23572780  0.42137930  0.31270144     1.25400
C109        C  0.27188139  0.35313403  0.30801536     0.87600
C110        C  0.18167883  0.42076106  0.31171142     0.87500
C111        C  0.22856803  0.40654289  0.28876717     0.87600
C112        C  0.22418195  0.36144248  0.33131746     0.87700
O113        O  0.23027185  0.84818420  0.81043565    -0.74600
O114        O  0.16605674  0.91469296  0.81211149    -0.74600
O115        O  0.20204685  0.89885874  0.79579831    -0.74700
O116        O  0.19370878  0.86151463  0.82688198    -0.74700
O117        O  0.21519089  0.92309111  0.83299505    -0.74600
O118        O  0.22428792  0.96083984  0.80127179    -0.74600
O119        O  0.18831671  0.97603587  0.81801984    -0.74600
O120        O  0.25129362  0.91060331  0.81652115    -0.74700
Ni121      Ni  0.19718868  0.87861058  0.81114224     1.25400
Ni122      Ni  0.22044933  0.94494526  0.81742335     1.25400
C123        C  0.25138633  0.86905612  0.81318497     0.87600
C124        C  0.16696212  0.95691997  0.81514259     0.87500
C125        C  0.21460914  0.93535769  0.79331473     0.87600
C126        C  0.20370642  0.88476641  0.83509006     0.87700
O127        O  0.20473749  0.03814236  0.68910942    -0.74600
O128        O  0.26854636  0.97162676  0.68382171    -0.74600
O129        O  0.23487758  0.01952802  0.67060827    -0.74700
O130        O  0.23903935  0.99353200  0.70245331    -0.74700
O131        O  0.21698741  0.92857078  0.70010167    -0.74600
O132        O  0.21101495  0.95706157  0.66754562    -0.74600
O133        O  0.24480863  0.90898689  0.68070910    -0.74600
O134        O  0.18288982  0.97261853  0.68682389    -0.74700
Ni135      Ni  0.23769669  0.00791759  0.68657792     1.25400
Ni136      Ni  0.21323393  0.93942870  0.68367822     1.25400
C137        C  0.18328301  0.01532791  0.68893899     0.87600
C138        C  0.26690678  0.92876645  0.68136273     0.87500
C139        C  0.22176875  0.99413358  0.66380124     0.87600
C140        C  0.22823751  0.95792184  0.70672248     0.87700
O141        O  0.45160124  0.75744981  0.80737146    -0.74600
O142        O  0.51614547  0.69088278  0.80972614    -0.74600
O143        O  0.48164547  0.70799710  0.79281565    -0.74700
O144        O  0.48680650  0.74326175  0.82424475    -0.74700
O145        O  0.46405416  0.68188174  0.82972133    -0.74600
O146        O  0.45983287  0.64479224  0.79767027    -0.74600
O147        O  0.49338891  0.62955684  0.81526064    -0.74600
O148        O  0.43054353  0.69373900  0.81232470    -0.74700
Ni149      Ni  0.48490095  0.72712228  0.80837820     1.25400
Ni150      Ni  0.46128929  0.66021804  0.81394065     1.25400
C151        C  0.43024033  0.73571966  0.80940270     0.87600
C152        C  0.51508169  0.64869293  0.81284891     0.87500
C153        C  0.46967715  0.67135225  0.78993765     0.87600
C154        C  0.47592281  0.71953067  0.83216991     0.87700
O155        O  0.46854212  0.57691223  0.68361788    -0.74600
O156        O  0.40828653  0.65494395  0.68173288    -0.74600
O157        O  0.43733435  0.60582234  0.66648812    -0.74700
O158        O  0.43902451  0.62331314  0.69896945    -0.74700
O159        O  0.46393375  0.68534672  0.69682450    -0.74600
O160        O  0.46415610  0.66493058  0.66387522    -0.74600
O161        O  0.43478128  0.71434200  0.67891267    -0.74600
O162        O  0.49367678  0.63902507  0.68179453    -0.74700
Ni163      Ni  0.43727389  0.61315271  0.68277760     1.25400
Ni164      Ni  0.46493782  0.67814208  0.68024652     1.25400
C165        C  0.49109046  0.59600954  0.68317223     0.87600
C166        C  0.41184327  0.69801315  0.67999744     0.87500
C167        C  0.45108721  0.63098208  0.65979240     0.87600
C168        C  0.45205915  0.65635326  0.70334053     0.87700
O169        O  0.69278318  0.50013769  0.67737589    -0.74600
O170        O  0.75892963  0.43977202  0.67331969    -0.74600
O171        O  0.72584152  0.48592162  0.65940500    -0.74700
O172        O  0.72632494  0.45714527  0.69115885    -0.74700
O173        O  0.70544219  0.39149399  0.68793543    -0.74600
O174        O  0.70510080  0.42088498  0.65532994    -0.74600
O175        O  0.73769313  0.37489458  0.66961026    -0.74600
O176        O  0.67309141  0.43391326  0.67356092    -0.74700
Ni177      Ni  0.72679601  0.47299815  0.67539169     1.25400
Ni178      Ni  0.70474417  0.40284957  0.67144039     1.25400
C179        C  0.67192759  0.47589822  0.67650439     0.87600
C180        C  0.75902342  0.39680865  0.67091976     0.87500
C181        C  0.71499238  0.45939101  0.65210371     0.87600
C182        C  0.71483536  0.42139719  0.69495032     0.87700
O183        O  0.72776929  0.32133485  0.80057971    -0.74600
O184        O  0.66191631  0.38395142  0.80380961    -0.74600
O185        O  0.69401555  0.36205372  0.78605214    -0.74700
O186        O  0.69482039  0.34037657  0.81816077    -0.74700
O187        O  0.71697854  0.40482179  0.82128954    -0.74600
O188        O  0.71430160  0.42888364  0.78844649    -0.74600
O189        O  0.68392343  0.44860338  0.80705589    -0.74600
O190        O  0.74791491  0.38856196  0.80282290    -0.74700
Ni191      Ni  0.69385609  0.34958887  0.80205352     1.25400
Ni192      Ni  0.71647510  0.42011247  0.80499740     1.25400
C193        C  0.74869209  0.34559944  0.80105859     0.87600
C194        C  0.66243796  0.42696616  0.80616970     0.87500
C195        C  0.70387841  0.39854098  0.78183725     0.87600
C196        C  0.70609646  0.36796345  0.82507296     0.87700
O197        O  0.97927486  0.08480600  0.68088749    -0.74600
O198        O  0.91519208  0.14952244  0.67546944    -0.74600
O199        O  0.94742245  0.09574550  0.66254048    -0.74700
O200        O  0.94706344  0.13493835  0.69374667    -0.74700
O201        O  0.96954716  0.19780166  0.68915319    -0.74600
O202        O  0.96985411  0.15760129  0.65720762    -0.74600
O203        O  0.93826323  0.21099548  0.67049313    -0.74600
O204        O  0.00093037  0.14812503  0.67582900    -0.74700
Ni205      Ni  0.94627408  0.11414224  0.67826042     1.25400
Ni206      Ni  0.97028238  0.18094074  0.67293033     1.25400
C207        C  0.00061230  0.10748697  0.67979576     0.87600
C208        C  0.91629350  0.19159786  0.67223993     0.87500
C209        C  0.95934784  0.11870070  0.65475705     0.87600
C210        C  0.95954937  0.17084711  0.69676776     0.87700
O211        O  0.95785135  0.28773773  0.80093162    -0.74600
O212        O  0.02228897  0.22131031  0.80386421    -0.74600
O213        O  0.98880695  0.23940958  0.78651955    -0.74700
O214        O  0.99228837  0.27233601  0.81817270    -0.74700
O215        O  0.96934911  0.21040464  0.82311197    -0.74600
O216        O  0.96653542  0.17610551  0.79079677    -0.74600
O217        O  0.99898586  0.15961922  0.80867044    -0.74600
O218        O  0.93624579  0.22374805  0.80551944    -0.74700
Ni219      Ni  0.99112157  0.25747373  0.80221315     1.25400
Ni220      Ni  0.96705389  0.19020355  0.80718761     1.25400
C221        C  0.93646575  0.26574851  0.80269106     0.87600
C222        C  0.02088690  0.17906448  0.80689299     0.87500
C223        C  0.97705726  0.20298568  0.78329286     0.87600
C224        C  0.98136431  0.24757485  0.82588436     0.87700
O225        O  0.69827127  0.58015903  0.54747899    -0.74600
O226        O  0.76131057  0.64590802  0.55519449    -0.74600
O227        O  0.72705572  0.58991953  0.56667272    -0.74700
O228        O  0.73295492  0.63334181  0.53598448    -0.74700
O229        O  0.70910495  0.69432443  0.54040342    -0.74600
O230        O  0.70404051  0.65089852  0.57178351    -0.74600
O231        O  0.73740634  0.70632550  0.55977940    -0.74600
O232        O  0.67582642  0.64220496  0.55243057    -0.74700
Ni233      Ni  0.73081711  0.61014174  0.55121099     1.25400
Ni234      Ni  0.70588455  0.67565481  0.55631737     1.25400
C235        C  0.67669111  0.60147314  0.54856517     0.87600
C236        C  0.75955709  0.68782483  0.55847969     0.87500
C237        C  0.71399228  0.61192383  0.57420956     0.87600
C238        C  0.72163677  0.67010262  0.53303472     0.87700
O239        O  0.74874533  0.78993361  0.42977626    -0.74600
O240        O  0.67702021  0.75066709  0.42813477    -0.74600
O241        O  0.71391820  0.75382393  0.44453965    -0.74700
O242        O  0.71178453  0.78974242  0.41320876    -0.74700
O243        O  0.72555049  0.72114198  0.40765109    -0.74600
O244        O  0.72545699  0.68319003  0.43957814    -0.74600
O245        O  0.69034376  0.68202892  0.42223703    -0.74600
O246        O  0.76046889  0.71934552  0.42490362    -0.74700
Ni247      Ni  0.71232389  0.77355766  0.42905271     1.25400
Ni248      Ni  0.72581308  0.69894499  0.42336454     1.25400
C249        C  0.76642477  0.75999141  0.42796163     0.87600
C250        C  0.67219472  0.70924672  0.42506582     0.87500
C251        C  0.72049969  0.71336805  0.44733012     0.87600
C252        C  0.71878698  0.76225971  0.40524322     0.87700
O253        O  0.97599551  0.82050839  0.42928421    -0.74600
O254        O  0.03580950  0.90101372  0.42860101    -0.74600
O255        O  0.00078935  0.87447581  0.44472586    -0.74700
O256        O  0.01133018  0.84507955  0.41301325    -0.74700
O257        O  0.98640088  0.90301369  0.40774007    -0.74600
O258        O  0.97492762  0.93194412  0.43977606    -0.74600
O259        O  0.01013022  0.95832238  0.42354840    -0.74600
O260        O  0.95154299  0.87921147  0.42384232    -0.74700
Ni261      Ni  0.00699959  0.85824168  0.42905203     1.25400
Ni262      Ni  0.98000209  0.92030784  0.42354058     1.25400
C263        C  0.95389690  0.83729037  0.42661745     0.87600
C264        C  0.03254391  0.94348141  0.42624233     0.87500
C265        C  0.98565285  0.90712079  0.44748491     0.87600
C266        C  0.99981734  0.86764836  0.40512810     0.87700
O267        O  0.98011892  0.00537787  0.55122274    -0.74600
O268        O  0.91492759  0.93996095  0.55492786    -0.74600
O269        O  0.94663533  0.98974165  0.56885137    -0.74700
O270        O  0.94786104  0.95854347  0.53713211    -0.74700
O271        O  0.96905527  0.89434324  0.54079548    -0.74600
O272        O  0.96902286  0.92748736  0.57322687    -0.74600
O273        O  0.93729821  0.87754950  0.55921091    -0.74600
O274        O  0.00094692  0.94064216  0.55496026    -0.74700
Ni275      Ni  0.94655127  0.97558606  0.55289205     1.25400
Ni276      Ni  0.96972597  0.90763522  0.55720555     1.25400
C277        C  0.00132234  0.98303140  0.55244416     0.87600
C278        C  0.91563944  0.89755561  0.55783483     0.87500
C279        C  0.95805747  0.96505321  0.57629501     0.87600
C280        C  0.95914938  0.92245970  0.53355431     0.87700
O281        O  0.24211064  0.28313768  0.43739661    -0.74600
O282        O  0.17593835  0.22020514  0.43521122    -0.74600
O283        O  0.20973871  0.24136365  0.45240503    -0.74700
O284        O  0.20800980  0.26495267  0.42020704    -0.74700
O285        O  0.22987573  0.20108253  0.41660455    -0.74600
O286        O  0.22897592  0.17434495  0.44934288    -0.74600
O287        O  0.19710618  0.15578323  0.43121947    -0.74600
O288        O  0.26177782  0.21644459  0.43458981    -0.74700
Ni289      Ni  0.20812045  0.25468570  0.43641285     1.25400
Ni290      Ni  0.23004941  0.18447995  0.43281033     1.25400
C291        C  0.26289139  0.25926148  0.43661788     0.87600
C292        C  0.17594539  0.17741429  0.43266549     0.87500
C293        C  0.22018825  0.20507631  0.45624160     0.87600
C294        C  0.21924015  0.23815712  0.41308383     0.87700
O295        O  0.20183992  0.09871073  0.55841398    -0.74600
O296        O  0.26264679  0.17281182  0.56475505    -0.74600
O297        O  0.23107593  0.11531021  0.57718190    -0.74700
O298        O  0.23398190  0.15387336  0.54598419    -0.74700
O299        O  0.20879966  0.21350568  0.54998934    -0.74600
O300        O  0.20518345  0.17309698  0.58174883    -0.74600
O301        O  0.23677353  0.23074866  0.56931352    -0.74600
O302        O  0.17715584  0.15900373  0.56247752    -0.74700
Ni303      Ni  0.23334303  0.13311780  0.56147584     1.25400
Ni304      Ni  0.20618146  0.19627581  0.56608470     1.25400
C305        C  0.17946031  0.11752874  0.55925133     0.87600
C306        C  0.25952332  0.21467844  0.56782859     0.87500
C307        C  0.21699943  0.13620697  0.58456477     0.87600
C308        C  0.22173615  0.18931634  0.54273114     0.87700
O309        O  0.47074640  0.54500140  0.55185086    -0.74600
O310        O  0.40529867  0.48469660  0.55915960    -0.74600
O311        O  0.44146981  0.53347096  0.57119988    -0.74700
O312        O  0.43417000  0.49953481  0.53992143    -0.74700
O313        O  0.45541995  0.43478829  0.54286599    -0.74600
O314        O  0.46232941  0.46900640  0.57505063    -0.74600
O315        O  0.42713382  0.42069223  0.56255678    -0.74600
O316        O  0.49068706  0.47928533  0.55550666    -0.74700
Ni317      Ni  0.43708795  0.51795453  0.55546350     1.25400
Ni318      Ni  0.45951402  0.44857068  0.55915587     1.25400
C319        C  0.49141602  0.52067428  0.55211644     0.87600
C320        C  0.40578053  0.44224240  0.56204630     0.87500
C321        C  0.45331726  0.50789703  0.57831375     0.87600
C322        C  0.44453977  0.46321899  0.53598590     0.87700
O323        O  0.46500798  0.36960763  0.43322881    -0.74600
O324        O  0.52469683  0.44991716  0.43076497    -0.74600
O325        O  0.49054580  0.42618548  0.44755406    -0.74700
O326        O  0.49985184  0.39070295  0.41636945    -0.74700
O327        O  0.47463711  0.44738171  0.41041535    -0.74600
O328        O  0.46390303  0.48187768  0.44226640    -0.74600
O329        O  0.49850375  0.50589388  0.42540683    -0.74600
O330        O  0.44013030  0.42664373  0.42707548    -0.74700
Ni331      Ni  0.49601889  0.40712786  0.43213672     1.25400
Ni332      Ni  0.46851515  0.46764180  0.42607626     1.25400
C333        C  0.44270468  0.38574970  0.43061686     0.87600
C334        C  0.52122805  0.49177732  0.42783342     0.87500
C335        C  0.47495134  0.45828733  0.45015703     0.87600
C336        C  0.48865956  0.41221255  0.40825065     0.87700
O337        O  0.23618867  0.76140832  0.93688963    -0.74600
O338        O  0.17909258  0.67661651  0.93348833    -0.74600
O339        O  0.21254271  0.69894215  0.95041982    -0.74700
O340        O  0.20203005  0.74074358  0.91987200    -0.74700
O341        O  0.22913500  0.68800720  0.91305956    -0.74600
O342        O  0.24063862  0.64673348  0.94413785    -0.74600
O343        O  0.20681108  0.62425125  0.92698418    -0.74600
O344        O  0.26278789  0.70808900  0.92989528    -0.74700
Ni345      Ni  0.20642853  0.72128943  0.93537642     1.25400
Ni346      Ni  0.23571426  0.66471295  0.92828117     1.25400
C347        C  0.25893852  0.74798718  0.93396205     0.87600
C348        C  0.18378124  0.63632934  0.92964860     0.87500
C349        C  0.22883150  0.66732188  0.95239893     0.87600
C350        C  0.21396309  0.72197897  0.91144802     0.87700
O351        O  0.23228223  0.58996787  0.05545476    -0.74600
O352        O  0.29093699  0.66980936  0.06144222    -0.74600
O353        O  0.25903089  0.61525496  0.07434655    -0.74700
O354        O  0.26482448  0.64176850  0.04255901    -0.74700
O355        O  0.23833375  0.70096839  0.04439545    -0.74600
O356        O  0.23169602  0.67288969  0.07692034    -0.74600
O357        O  0.26358292  0.72751703  0.06384023    -0.74600
O358        O  0.20627879  0.65013647  0.05745929    -0.74700
Ni359      Ni  0.26281091  0.62724211  0.05840567     1.25400
Ni360      Ni  0.23415037  0.69014470  0.06078164     1.25400
C361        C  0.20960032  0.60787344  0.05529372     0.87600
C362        C  0.28673642  0.71239832  0.06341587     0.87500
C363        C  0.24369610  0.63780537  0.08084483     0.87600
C364        C  0.25202320  0.67423098  0.03803570     0.87700
O365        O  0.73691945  0.26785551  0.92949564    -0.74600
O366        O  0.67469660  0.19403252  0.92707410    -0.74600
O367        O  0.70938001  0.21304643  0.94380126    -0.74700
O368        O  0.70164871  0.25101293  0.91276240    -0.74700
O369        O  0.72485520  0.19197648  0.90651651    -0.74600
O370        O  0.73393241  0.15460067  0.93818766    -0.74600
O371        O  0.69893318  0.13545044  0.92131514    -0.74600
O372        O  0.75983465  0.20846588  0.92311673    -0.74700
Ni373      Ni  0.70475859  0.23355921  0.92846657     1.25400
Ni374      Ni  0.73013475  0.17039127  0.92207270     1.25400
C375        C  0.75865031  0.24969021  0.92665791     0.87600
C376        C  0.67680777  0.15218130  0.92384148     0.87500
C377        C  0.72339871  0.17862766  0.94620670     0.87600
C378        C  0.71209271  0.22867562  0.90451063     0.87700
O379        O  0.73472055  0.20042339  0.03911992    -0.74600
O380        O  0.72891061  0.17295840  0.07158864    -0.74600
O381        O  0.76081679  0.22718463  0.05838130    -0.74700
O382        O  0.70325324  0.14965953  0.05235306    -0.74700
O383        O  0.72904523  0.08898704  0.05079498    -0.74600
O384        O  0.78795957  0.16952452  0.05524545    -0.74600
O385        O  0.75724918  0.11644246  0.06920650    -0.74600
O386        O  0.75993544  0.13972286  0.03691404    -0.74700
Ni387      Ni  0.73114830  0.18983240  0.05548644     1.25400
Ni388      Ni  0.75964352  0.12667918  0.05299039     1.25400
C389        C  0.74703289  0.17254171  0.03254453     0.87600
C390        C  0.74164148  0.13898777  0.07560531     0.87500
C391        C  0.78389212  0.21194355  0.05747082     0.87600
C392        C  0.70643222  0.10705371  0.05057630     0.87700
O393        O  0.46071212  0.83150401  0.93809046    -0.74600
O394        O  0.52615479  0.89154798  0.93151940    -0.74600
O395        O  0.49569799  0.87999779  0.95034858    -0.74700
O396        O  0.49160406  0.84078729  0.91917204    -0.74700
O397        O  0.47005918  0.90352245  0.91442958    -0.74600
O398        O  0.47504912  0.94442236  0.94615227    -0.74600
O399        O  0.50455029  0.95433229  0.92676751    -0.74600
O400        O  0.44054556  0.89642344  0.93378055    -0.74700
Ni401      Ni  0.49431601  0.85867031  0.93490317     1.25400
Ni402      Ni  0.47187519  0.92696434  0.93008357     1.25400
C403        C  0.43993438  0.85523012  0.93734479     0.87600
C404        C  0.52593621  0.93339406  0.92817415     0.87500
C405        C  0.48590292  0.91800399  0.95351252     0.87600
C406        C  0.48004632  0.86486712  0.91161689     0.87700
O407        O  0.50316250  0.03519027  0.05583030    -0.74600
O408        O  0.43462020  0.98152464  0.06040134    -0.74600
O409        O  0.46857786  0.02998491  0.07357303    -0.74700
O410        O  0.46869122  0.99083901  0.04258500    -0.74700
O411        O  0.48663344  0.92449498  0.04741738    -0.74600
O412        O  0.48699479  0.96554763  0.07935752    -0.74600
O413        O  0.45373930  0.91714146  0.06585379    -0.74600
O414        O  0.52000547  0.96874271  0.06122936    -0.74700
Ni415      Ni  0.46800344  0.01169275  0.05796018     1.25400
Ni416      Ni  0.48734050  0.94156324  0.06368055     1.25400
C417        C  0.52289814  0.00926771  0.05742442     0.87600
C418        C  0.43323660  0.93981587  0.06390956     0.87500
C419        C  0.47841405  0.00592144  0.08154916     0.87600
C420        C  0.47867189  0.95277135  0.03972843     0.87700
O421        O  0.96258619  0.32535642  0.93261535    -0.74600
O422        O  0.03273968  0.37260743  0.92986997    -0.74600
O423        O  0.99800555  0.36077907  0.94730856    -0.74700
O424        O  0.99781591  0.33472751  0.91521681    -0.74700
O425        O  0.98190410  0.40345018  0.91132451    -0.74600
O426        O  0.98247140  0.43027735  0.94401597    -0.74600
O427        O  0.01626205  0.44118221  0.92610252    -0.74600
O428        O  0.94785266  0.39526767  0.92911731    -0.74700
Ni429      Ni  0.99835272  0.34587130  0.93136898     1.25400
Ni430      Ni  0.98162286  0.42001118  0.92751924     1.25400
C431        C  0.94361978  0.35324038  0.93142695     0.87600
C432        C  0.03575887  0.41514673  0.92739728     0.87500
C433        C  0.98994076  0.39922038  0.95106681     0.87600
C434        C  0.99013449  0.36424929  0.90791537     0.87700
O435        O  0.00792182  0.51909487  0.05408804    -0.74600
O436        O  0.93821566  0.47004020  0.05784961    -0.74600
O437        O  0.97277325  0.51540007  0.07147020    -0.74700
O438        O  0.97314900  0.47698154  0.04037605    -0.74700
O439        O  0.98933435  0.40929602  0.04521647    -0.74600
O440        O  0.98912654  0.44882531  0.07711112    -0.74600
O441        O  0.95547044  0.40391207  0.06319454    -0.74600
O442        O  0.02341268  0.45141705  0.05932769    -0.74700
Ni443      Ni  0.97235338  0.49774231  0.05578887     1.25400
Ni444      Ni  0.98984783  0.42595331  0.06141834     1.25400
C445        C  0.02717013  0.49232428  0.05587604     0.87600
C446        C  0.93559752  0.42820575  0.06111569     0.87500
C447        C  0.98117114  0.48942311  0.07940937     0.87600
C448        C  0.98182275  0.43782483  0.03752260     0.87700
C449        C  0.98396788  0.42809178  0.02503405    -0.20000
C450        C  0.97932985  0.38455800  0.02019314     0.36200
C451        C  0.98043459  0.37926366  0.00810888    -0.26000
C452        C  0.98594611  0.41672742  0.00086416     0.02600
C453        C  0.99106801  0.45987695  0.00576905     0.27400
C454        C  0.98986433  0.46510724  0.01773752    -0.25100
N455        N  0.97288132  0.34640703  0.02747945    -0.82500
H456        H  0.97652293  0.34609688  0.00430145     0.13300
C457        C  0.98651690  0.41100267  0.98813875     0.02600
N458        N  0.99764850  0.49823031  0.99854911    -0.81100
H459        H  0.99376095  0.49852347  0.02141931     0.18100
C460        C  0.96991433  0.43729701  0.98130915    -0.25900
C461        C  0.97110798  0.43552947  0.96919885     0.36100
C462        C  0.98911635  0.40618478  0.96377637    -0.19900
C463        C  0.00551056  0.37954608  0.97069340    -0.25200
C464        C  0.00451612  0.38186828  0.98277534     0.27500
H465        H  0.95606077  0.45962519  0.98548524     0.13200
N466        N  0.95353946  0.46230093  0.96247489    -0.82500
H467        H  0.01936632  0.35686955  0.96664749     0.18100
N468        N  0.02190737  0.35515785  0.98961774    -0.81100
H469        H  0.94040603  0.47941320  0.96781433     0.33700
H470        H  0.96449597  0.48771557  0.95833824     0.38200
H471        H  0.03384608  0.33519737  0.98435857     0.33700
H472        H  0.03410941  0.37785356  0.99401839     0.30400
H473        H  0.00064650  0.52768869  0.00349435     0.33700
H474        H  0.01533166  0.49106762  0.99450452     0.30400
H475        H  0.95509931  0.35339985  0.03146226     0.38300
H476        H  0.97007298  0.31685542  0.02255069     0.33700
C477        C  0.48649305  0.92943627  0.96598047    -0.20000
C478        C  0.50674963  0.91322887  0.97303012     0.36200
C479        C  0.50461700  0.91686776  0.98505198    -0.26000
C480        C  0.48293017  0.93689820  0.99021531     0.02600
C481        C  0.46339412  0.95567723  0.98324191     0.27400
C482        C  0.46535778  0.95174399  0.97115419    -0.25100
N483        N  0.52940237  0.89287909  0.96794634    -0.82500
H484        H  0.51991863  0.90381545  0.99046391     0.13300
C485        C  0.48179525  0.93936724  0.00296228     0.02600
N486        N  0.44172551  0.97857955  0.98845540    -0.81100
H487        H  0.44986561  0.96443261  0.96580084     0.18100
C488        C  0.49378449  0.97638778  0.00845660    -0.25900
C489        C  0.49422831  0.97942626  0.02050919     0.36100
C490        C  0.48222066  0.94483514  0.02724182    -0.19900
C491        C  0.47088504  0.90693943  0.02176842    -0.25200
C492        C  0.47055935  0.90389642  0.00962740     0.27500
H493        H  0.50289808  0.00294643  0.00329601     0.13200
N494        N  0.50671501  0.01778971  0.02600192    -0.82500
H495        H  0.46151048  0.88069028  0.02693037     0.18100
N496        N  0.45898721  0.86498893  0.00402817    -0.81100
H497        H  0.51436548  0.04039604  0.01987200     0.33700
H498        H  0.52246512  0.00524785  0.03062929     0.38200
H499        H  0.45185407  0.84174610  0.01013170     0.33700
H500        H  0.44297248  0.87643819  0.99941325     0.30400
H501        H  0.42925010  0.99088623  0.98213542     0.33700
H502        H  0.43113746  0.95439649  0.99320173     0.30400
H503        H  0.53892317  0.91818366  0.96312495     0.38300
H504        H  0.54237288  0.88258189  0.97430342     0.33700
C505        C  0.68288218  0.08009088  0.04842273    -0.20000
C506        C  0.67475011  0.04557940  0.05609270     0.36200
C507        C  0.64850373  0.03214733  0.05620099    -0.26000
C508        C  0.63063082  0.05239161  0.04870364     0.02600
C509        C  0.63942989  0.08337069  0.04026946     0.27400
C510        C  0.66548952  0.09726203  0.04028003    -0.25100
N511        N  0.69273637  0.02617011  0.06409652    -0.82500
H512        H  0.64168296  0.00758086  0.06252963     0.13300
C513        C  0.60263828  0.04227460  0.05010873     0.02600
N514        N  0.62166076  0.10160996  0.03200028    -0.81100
H515        H  0.67198741  0.12360836  0.03434143     0.18100
C516        C  0.58532736  0.07786294  0.05272202    -0.25900
C517        C  0.55886752  0.06876975  0.05494760     0.36100
C518        C  0.54976991  0.02325399  0.05445375    -0.19900
C519        C  0.56713032  0.98818171  0.05143273    -0.25200
C520        C  0.59336507  0.99717665  0.04927989     0.27500
H521        H  0.59268479  0.11258670  0.05336522     0.13200
N522        N  0.54158638  0.10515403  0.05801345    -0.82500
H523        H  0.56022175  0.95318045  0.05077918     0.18100
N524        N  0.61070268  0.96067901  0.04630254    -0.81100
H525        H  0.55139691  0.13658591  0.05786763     0.33700
H526        H  0.53566601  0.09978258  0.06653151     0.38200
H527        H  0.60083081  0.92929614  0.04617137     0.33700
H528        H  0.61738668  0.96658453  0.03791619     0.30400
H529        H  0.63125654  0.12423050  0.02642205     0.33700
H530        H  0.61502610  0.07435412  0.02695074     0.30400
H531        H  0.69871389  0.05203471  0.06971151     0.38300
H532        H  0.68353631  0.00121952  0.06915081     0.33700
C533        C  0.90985556  0.40533791  0.06236058    -0.20000
C534        C  0.88841630  0.41587986  0.05534225     0.36200
C535        C  0.86672144  0.38605840  0.05524438    -0.26000
C536        C  0.86613054  0.34643688  0.06205802     0.02600
C537        C  0.88673590  0.33745469  0.06955287     0.27400
C538        C  0.90822822  0.36709053  0.06969562    -0.25100
N539        N  0.88928743  0.45503138  0.04788996    -0.82500
H540        H  0.85060977  0.39280920  0.04956278     0.13300
C541        C  0.84474770  0.31273082  0.06082008     0.02600
N542        N  0.88625484  0.29702664  0.07659093    -0.81100
H543        H  0.92437580  0.35908205  0.07525241     0.18100
C544        C  0.84789752  0.27589658  0.05320665    -0.25900
C545        C  0.82849913  0.24205019  0.05204849     0.36100
C546        C  0.80572238  0.24482877  0.05882862    -0.19900
C547        C  0.80270171  0.28189909  0.06644577    -0.25200
C548        C  0.82203788  0.31579084  0.06753813     0.27500
H549        H  0.86550128  0.27385301  0.04808712     0.13200
N550        N  0.83153605  0.20578847  0.04379423    -0.82500
H551        H  0.78515797  0.28438102  0.07159007     0.18100
N552        N  0.81863458  0.35348739  0.07534485    -0.81100
H553        H  0.84943017  0.20870140  0.03955456     0.33700
H554        H  0.81729498  0.20987821  0.03751420     0.38200
H555        H  0.80066928  0.35100750  0.07953652     0.33700
H556        H  0.83275819  0.35101871  0.08172631     0.30400
H557        H  0.90325503  0.29472637  0.08141568     0.33700
H558        H  0.87100901  0.30023319  0.08249969     0.30400
H559        H  0.88924788  0.48414329  0.05311992     0.38300
H560        H  0.87246071  0.45656575  0.04292537     0.33700
C561        C  0.78332148  0.27498404  0.92748896    -0.20000
C562        C  0.79115450  0.29633586  0.93779610     0.36200
C563        C  0.81711693  0.31088861  0.93892728    -0.26000
C564        C  0.83511161  0.30421751  0.92996179     0.02600
C565        C  0.82678481  0.28551270  0.91942291     0.27400
C566        C  0.80102155  0.27068889  0.91833671    -0.25100
N567        N  0.77314123  0.30129852  0.94720466    -0.82500
H568        H  0.82360944  0.32585995  0.94695749     0.13300
C569        C  0.86277899  0.31611949  0.93166773     0.02600
N570        N  0.84469219  0.28095785  0.90995418    -0.81100
H571        H  0.79484655  0.25439660  0.91041133     0.18100
C572        C  0.88157857  0.28179887  0.93067851    -0.25900
C573        C  0.90816587  0.29248378  0.93109398     0.36100
C574        C  0.91613716  0.33831681  0.93252153    -0.19900
C575        C  0.89712887  0.37214007  0.93417289    -0.25200
C576        C  0.87058260  0.36158584  0.93366846     0.27500
H577        H  0.87555047  0.24664268  0.92927788     0.13200
N578        N  0.92684516  0.25694177  0.92966703    -0.82500
H579        H  0.90295703  0.40741615  0.93551515     0.18100
N580        N  0.85155831  0.39702621  0.93480816    -0.81100
H581        H  0.92351158  0.24101796  0.92173782     0.33700
H582        H  0.92368162  0.23274932  0.93614899     0.38200
H583        H  0.86053300  0.42865618  0.93631201     0.33700
H584        H  0.84199391  0.39976034  0.92693086     0.30400
H585        H  0.83550647  0.26618840  0.90284068     0.33700
H586        H  0.85043946  0.31387466  0.90746709     0.30400
H587        H  0.76798146  0.26859892  0.95006690     0.38300
H588        H  0.78206125  0.31779065  0.95414709     0.33700
C589        C  0.55020398  0.95971955  0.92613130    -0.20000
C590        C  0.57247877  0.95416031  0.93300763     0.36200
C591        C  0.59288051  0.98636413  0.93216710    -0.26000
C592        C  0.59148725  0.02328671  0.92451319     0.02600
C593        C  0.56995032  0.02755746  0.91725079     0.27400
C594        C  0.54955390  0.99572261  0.91811834    -0.25100
N595        N  0.57378226  0.91749534  0.94120159    -0.82500
H596        H  0.60976303  0.98316693  0.93761289     0.13300
C597        C  0.61265022  0.05760588  0.92418789     0.02600
N598        N  0.56873830  0.06466007  0.90916586    -0.81100
H599        H  0.53262442  0.99990223  0.91274456     0.18100
C600        C  0.63203842  0.05364725  0.91579186    -0.25900
C601        C  0.65260233  0.08534670  0.91521220     0.36100
C602        C  0.65377322  0.12167753  0.92327023    -0.19900
C603        C  0.63378540  0.12637940  0.93144354    -0.25200
C604        C  0.61320286  0.09451825  0.93199318     0.27500
H605        H  0.63113373  0.02555122  0.90970913     0.13200
N606        N  0.67228749  0.08077642  0.90646756    -0.82500
H607        H  0.63467779  0.15404764  0.93764512     0.18100
N608        N  0.59311671  0.09890480  0.94055404    -0.81100
H609        H  0.66865270  0.05210275  0.90131987     0.33700
H610        H  0.67112951  0.10930796  0.90108482     0.38200
H611        H  0.59655034  0.12756655  0.94573369     0.33700
H612        H  0.57569255  0.10479776  0.93626505     0.30400
H613        H  0.55165857  0.06265234  0.90437195     0.33700
H614        H  0.56784428  0.09511663  0.91386660     0.30400
H615        H  0.57493789  0.88695265  0.93655218     0.38300
H616        H  0.59086726  0.91988621  0.94598345     0.33700
C617        C  0.72759962  0.16876006  0.95854408    -0.20000
C618        C  0.75267099  0.16294356  0.96313793     0.36200
C619        C  0.75614256  0.16375910  0.97510240    -0.26000
C620        C  0.73500179  0.16915273  0.98269614     0.02600
C621        C  0.70975026  0.17239683  0.97811925     0.27400
C622        C  0.70640790  0.17293328  0.96612130    -0.25100
N623        N  0.77507222  0.15821858  0.95588819    -0.82500
H624        H  0.77562357  0.16127939  0.97848459     0.13300
C625        C  0.73949063  0.17159581  0.99538038     0.02600
N626        N  0.68761236  0.17543618  0.98566840    -0.81100
H627        H  0.68713716  0.17741466  0.96263280     0.18100
C628        C  0.72909438  0.20793962  0.00181289    -0.25900
C629        C  0.73131623  0.20978353  0.01389993     0.36100
C630        C  0.74541815  0.17549961  0.01970083    -0.19900
C631        C  0.75677290  0.14031396  0.01310669    -0.25200
C632        C  0.75353023  0.13748565  0.00112498     0.27500
H633        H  0.71857976  0.23450965  0.99738621     0.13200
N634        N  0.71891617  0.24593188  0.02020515    -0.82500
H635        H  0.76746795  0.11353460  0.01734965     0.18100
N636        N  0.76381030  0.09923118  0.99483905    -0.81100
H637        H  0.71088406  0.26972310  0.01457315     0.33700
H638        H  0.70326287  0.23139484  0.02469663     0.38200
H639        H  0.77365202  0.07728760  0.00028251     0.33700
H640        H  0.74800164  0.08058319  0.99151668     0.30400
H641        H  0.67049614  0.17791365  0.98093846     0.33700
H642        H  0.68635183  0.14483230  0.99029332     0.30400
H643        H  0.77642451  0.18665041  0.95047489     0.38300
H644        H  0.77261771  0.12895582  0.95082254     0.33700
C645        C  0.18618395  0.58096704  0.05273299    -0.20000
C646        C  0.16878155  0.59713283  0.04437106     0.36200
C647        C  0.14318151  0.58055003  0.04427646    -0.26000
C648        C  0.13471528  0.54839257  0.05241956     0.02600
C649        C  0.15255392  0.53010736  0.06033359     0.27400
C650        C  0.17832482  0.54639034  0.06034307    -0.25100
N651        N  0.17697813  0.63194351  0.03636712    -0.82500
H652        H  0.12951638  0.59379280  0.03808730     0.13300
C653        C  0.10690868  0.53529958  0.05278469     0.02600
N654        N  0.14408945  0.49679881  0.06866592    -0.81100
H655        H  0.19167415  0.53475988  0.06686816     0.18100
C656        C  0.09984906  0.49007628  0.05039291    -0.25900
C657        C  0.07381605  0.47588168  0.05089830     0.36100
C658        C  0.05435934  0.50767421  0.05402182    -0.19900
C659        C  0.06139215  0.55340356  0.05606091    -0.25200
C660        C  0.08756991  0.56748619  0.05556055     0.27500
H661        H  0.11478589  0.46577491  0.04810358     0.13200
N662        N  0.06708762  0.42925963  0.04819802    -0.82500
H663        H  0.04658793  0.57775553  0.05847012     0.18100
N664        N  0.09470180  0.61401572  0.05811700    -0.81100
H665        H  0.08366032  0.41036612  0.04621640     0.33700
H666        H  0.05576268  0.42961966  0.04075940     0.38200
H667        H  0.07822879  0.63332230  0.05999487     0.33700
H668        H  0.10591461  0.61376590  0.06558902     0.30400
H669        H  0.15955199  0.48697028  0.07386635     0.33700
H670        H  0.13055591  0.51253483  0.07408322     0.30400
H671        H  0.19168070  0.61815727  0.03121535     0.38300
H672        H  0.16182204  0.64048734  0.03085302     0.33700
C673        C  0.40829356  0.91520264  0.06573037    -0.20000
C674        C  0.38685939  0.92027767  0.05835295     0.36200
C675        C  0.36622721  0.88834809  0.05898156    -0.26000
C676        C  0.36683993  0.85170818  0.06678173     0.02600
C677        C  0.38741749  0.84827754  0.07458598     0.27400
C678        C  0.40782399  0.88012502  0.07402718    -0.25100
N679        N  0.38685144  0.95570136  0.04979863    -0.82500
H680        H  0.35011931  0.89087327  0.05307192     0.13300
C681        C  0.34655430  0.81566755  0.06636098     0.02600
N682        N  0.38784751  0.81154316  0.08279772    -0.81100
H683        H  0.42407551  0.87635480  0.07981792     0.18100
C684        C  0.35285209  0.77238184  0.06199690    -0.25900
C685        C  0.33397376  0.73748828  0.06111436     0.36100
C686        C  0.30834551  0.74595349  0.06494660    -0.19900
C687        C  0.30248454  0.78920127  0.06964306    -0.25200
C688        C  0.32128825  0.82406179  0.07035824     0.27500
H689        H  0.37247433  0.76626884  0.05899817     0.13200
N690        N  0.34065721  0.69425813  0.05605165    -0.82500
H691        H  0.28300632  0.79616497  0.07268857     0.18100
N692        N  0.31485282  0.86802826  0.07507950    -0.81100
H693        H  0.36043291  0.69339298  0.05400369     0.33700
H694        H  0.33075534  0.69153006  0.04824768     0.38200
H695        H  0.29532290  0.86883853  0.07755682     0.33700
H696        H  0.32569922  0.87254659  0.08257834     0.30400
H697        H  0.40458760  0.81343992  0.08782169     0.33700
H698        H  0.37210945  0.81591760  0.08840198     0.30400
H699        H  0.38573257  0.98698696  0.05412681     0.38300
H700        H  0.37020851  0.95324256  0.04472451     0.33700
C701        C  0.28190858  0.77696431  0.93551527    -0.20000
C702        C  0.29880558  0.78404860  0.92611476     0.36200
C703        C  0.32450240  0.79733841  0.92815604    -0.26000
C704        C  0.33373386  0.80230556  0.93942128     0.02600
C705        C  0.31635311  0.79836799  0.94881185     0.27400
C706        C  0.29032509  0.78631356  0.94672896    -0.25100
N707        N  0.29008558  0.77502803  0.91458769    -0.82500
H708        H  0.33775154  0.80184348  0.92095583     0.13300
C709        C  0.36181299  0.81065764  0.94104291     0.02600
N710        N  0.32548364  0.80415566  0.96039406    -0.81100
H711        H  0.27724618  0.78016286  0.95391355     0.18100
C712        C  0.37003474  0.85084384  0.94650659    -0.25900
C713        C  0.39626842  0.86374758  0.94634711     0.36100
C714        C  0.41439937  0.83617535  0.94044669    -0.19900
C715        C  0.40661080  0.79394391  0.93592411    -0.25200
C716        C  0.38034601  0.78077841  0.93619610     0.27500
H717        H  0.35580989  0.87332688  0.95036532     0.13200
N718        N  0.40452537  0.90567804  0.95174094    -0.82500
H719        H  0.42066760  0.77273970  0.93151233     0.18100
N720        N  0.37218231  0.73812782  0.93116408    -0.81100
H721        H  0.38880637  0.92210507  0.95563051     0.33700
H722        H  0.41728194  0.89713814  0.95835105     0.38200
H723        H  0.38811656  0.72040477  0.92787074     0.33700
H724        H  0.36430040  0.71796452  0.93776418     0.30400
H725        H  0.31024246  0.79981999  0.96628487     0.33700
H726        H  0.33873526  0.77810394  0.96201478     0.30400
H727        H  0.27535685  0.79823029  0.91276306     0.38300
H728        H  0.30500721  0.78122646  0.90863618     0.33700
C729        C  0.06161624  0.43648610  0.92596865    -0.20000
C730        C  0.08137270  0.43125690  0.93418460     0.36200
C731        C  0.10253526  0.46206136  0.93412170    -0.26000
C732        C  0.10426103  0.49727903  0.92593142     0.02600
C733        C  0.08555905  0.50010531  0.91718881     0.27400
C734        C  0.06449845  0.46953382  0.91727754    -0.25100
N735        N  0.07901492  0.39698098  0.94298422    -0.82500
H736        H  0.11725128  0.45974344  0.94071270     0.13300
C737        C  0.12461842  0.53298004  0.92701374     0.02600
N738        N  0.08736610  0.53537537  0.90859475    -0.81100
H739        H  0.04939103  0.47320582  0.91089966     0.18100
C740        C  0.14312008  0.53817315  0.91822352    -0.25900
C741        C  0.16207826  0.57266649  0.91881093     0.36100
C742        C  0.16263783  0.60252486  0.92834859    -0.19900
C743        C  0.14375801  0.59807293  0.93702183    -0.25200
C744        C  0.12468725  0.56347765  0.93644698     0.27500
H745        H  0.14278679  0.51538369  0.91085881     0.13200
N746        N  0.18045815  0.57788465  0.90959242    -0.82500
H747        H  0.14422916  0.62098880  0.94435809     0.18100
N748        N  0.10532465  0.55923183  0.94535156    -0.81100
H749        H  0.19052765  0.54717388  0.90869945     0.33700
H750        H  0.17019045  0.58348148  0.90199905     0.38200
H751        H  0.10820180  0.58407375  0.95171063     0.33700
H752        H  0.08730885  0.56589458  0.94165203     0.30400
H753        H  0.07208856  0.53253414  0.90275418     0.33700
H754        H  0.08521136  0.56685657  0.91276117     0.30400
H755        H  0.08014721  0.36509367  0.93894443     0.38300
H756        H  0.09474840  0.39894430  0.94860915     0.33700
C757        C  0.23452495  0.65746097  0.96455006    -0.20000
C758        C  0.26004267  0.66071733  0.96881698     0.36200
C759        C  0.26391435  0.66325032  0.98078484    -0.26000
C760        C  0.24279855  0.66233074  0.98849998     0.02600
C761        C  0.21748166  0.65593992  0.98422108     0.27400
C762        C  0.21359109  0.65417134  0.97228724    -0.25100
N763        N  0.28175953  0.66376224  0.96101609    -0.82500
H764        H  0.28337624  0.66775186  0.98409842     0.13300
C765        C  0.24728903  0.66853443  0.00103199     0.02600
N766        N  0.19580488  0.65206370  0.99202087    -0.81100
H767        H  0.19401615  0.65173055  0.96896611     0.18100
C768        C  0.23452683  0.70372631  0.00700888    -0.25900
C769        C  0.23678547  0.70854166  0.01903749     0.36100
C770        C  0.25220708  0.67736257  0.02521411    -0.19900
C771        C  0.26621165  0.64405468  0.01901229    -0.25200
C772        C  0.26363587  0.63891296  0.00707959     0.27500
H773        H  0.22240213  0.72709413  0.00226211     0.13200
N774        N  0.22302668  0.74418203  0.02494328    -0.82500
H775        H  0.27841043  0.62015586  0.02353476     0.18100
N776        N  0.27680183  0.60257491  0.00114753    -0.81100
H777        H  0.21205470  0.76323119  0.01915169     0.33700
H778        H  0.23686663  0.76663436  0.02836569     0.38200
H779        H  0.28818329  0.58382320  0.00684310     0.33700
H780        H  0.26267155  0.58005074  0.99799693     0.30400
H781        H  0.17850105  0.64776474  0.98748298     0.33700
H782        H  0.19830593  0.62230174  0.99685555     0.30400
H783        H  0.28017970  0.69436496  0.95643988     0.38300
H784        H  0.29915262  0.66587723  0.96556422     0.33700
C785        C  0.44521422  0.45758754  0.52319910    -0.20000
C786        C  0.45566779  0.41891947  0.51758233     0.36200
C787        C  0.45913355  0.41969160  0.50551274    -0.26000
C788        C  0.45247012  0.45826592  0.49896605     0.02600
C789        C  0.44120991  0.49606158  0.50450124     0.27400
C790        C  0.43736530  0.49503053  0.51644308    -0.25100
N791        N  0.46312745  0.37947328  0.52409074    -0.82500
H792        H  0.46747060  0.39038600  0.50118945     0.13300
C793        C  0.45844158  0.45995538  0.48641889     0.02600
N794        N  0.43463127  0.53618977  0.49802576    -0.81100
H795        H  0.42925053  0.52503196  0.52052407     0.18100
C796        C  0.43850176  0.46849911  0.47852015    -0.25900
C797        C  0.44363056  0.47162842  0.46662177     0.36100
C798        C  0.46921103  0.46533122  0.46253892    -0.19900
C799        C  0.48915811  0.45755775  0.47048367    -0.25200
C800        C  0.48410990  0.45526480  0.48236120     0.27500
H801        H  0.41879644  0.47225429  0.48166390     0.13200
N802        N  0.42277020  0.47860970  0.45867588    -0.82500
H803        H  0.50878887  0.45246102  0.46736762     0.18100
N804        N  0.50493792  0.44809430  0.49032190    -0.81100
H805        H  0.40500199  0.48004467  0.46304885     0.33700
H806        H  0.42559552  0.51073660  0.45491834     0.38200
H807        H  0.52261151  0.44492999  0.48594036     0.33700
H808        H  0.50650599  0.47735681  0.49546231     0.30400
H809        H  0.42641248  0.56102447  0.50336991     0.33700
H810        H  0.45188484  0.55027881  0.49477179     0.30400
H811        H  0.44624666  0.36534436  0.52770126     0.38300
H812        H  0.47090898  0.35447100  0.51866681     0.33700
C813        C  0.28207289  0.24644476  0.56893735    -0.20000
C814        C  0.28032128  0.28704836  0.57556553     0.36200
C815        C  0.29986860  0.32068304  0.57461582    -0.26000
C816        C  0.32132162  0.31432183  0.56738074     0.02600
C817        C  0.32407982  0.27272450  0.56136407     0.27400
C818        C  0.30438333  0.23917342  0.56218166    -0.25100
N819        N  0.25863898  0.29412530  0.58319217    -0.82500
H820        H  0.29834911  0.35217019  0.57949482     0.13300
C821        C  0.34130453  0.35087805  0.56655275     0.02600
N822        N  0.34687526  0.26476259  0.55447583    -0.81100
H823        H  0.30598094  0.20810280  0.55714778     0.18100
C824        C  0.36148377  0.35139432  0.57453795    -0.25900
C825        C  0.38172733  0.38363261  0.57370662     0.36100
C826        C  0.38185356  0.41586656  0.56464335    -0.19900
C827        C  0.36083046  0.41709102  0.55703835    -0.25200
C828        C  0.34049494  0.38465739  0.55789181     0.27500
H829        H  0.36166343  0.32593195  0.58130649     0.13200
N830        N  0.40250211  0.38334203  0.58191195    -0.82500
H831        H  0.36099227  0.44166086  0.55006498     0.18100
N832        N  0.31920563  0.38554842  0.54996089    -0.81100
H833        H  0.39965411  0.35734968  0.58796951     0.33700
H834        H  0.40180710  0.41425693  0.58643075     0.38200
H835        H  0.32140568  0.41278254  0.54420695     0.33700
H836        H  0.31984984  0.35564646  0.54503641     0.30400
H837        H  0.34612260  0.23219420  0.55076502     0.33700
H838        H  0.34690888  0.28813555  0.54768006     0.30400
H839        H  0.26025527  0.32571038  0.58736855     0.38300
H840        H  0.25941008  0.26908608  0.58959384     0.33700
C841        C  0.28888791  0.28030571  0.43785445    -0.20000
C842        C  0.30981117  0.25443893  0.44217393     0.36200
C843        C  0.33502517  0.27247857  0.44163459    -0.26000
C844        C  0.33985943  0.31562930  0.43690920     0.02600
C845        C  0.31898575  0.34245698  0.43307550     0.27400
C846        C  0.29357506  0.32458120  0.43365776    -0.25100
N847        N  0.30550804  0.20944020  0.44684275    -0.82500
H848        H  0.35117141  0.25216353  0.44457869     0.13300
C849        C  0.36711563  0.33072715  0.43543188     0.02600
N850        N  0.32379920  0.38721690  0.42839217    -0.81100
H851        H  0.27759280  0.34437571  0.43034968     0.18100
C852        C  0.37677579  0.33793033  0.42427135    -0.25900
C853        C  0.40243760  0.35235509  0.42250578     0.36100
C854        C  0.41886210  0.35881375  0.43199534    -0.19900
C855        C  0.40962717  0.34985050  0.44313894    -0.25200
C856        C  0.38371363  0.33615682  0.44497143     0.27500
H857        H  0.36421639  0.33297471  0.41691560     0.13200
N858        N  0.41171122  0.36158084  0.41108197    -0.82500
H859        H  0.42212122  0.35646973  0.45043886     0.18100
N860        N  0.37391065  0.32927035  0.45645656    -0.81100
H861        H  0.40959390  0.33172951  0.40620359     0.33700
H862        H  0.39993833  0.38665667  0.40747471     0.38200
H863        H  0.38856879  0.33486944  0.46249586     0.33700
H864        H  0.35978426  0.35402057  0.45799312     0.30400
H865        H  0.30642198  0.40230084  0.42587310     0.33700
H866        H  0.33139225  0.40759339  0.43498749     0.30400
H867        H  0.29423237  0.21285448  0.45428437     0.38300
H868        H  0.32300972  0.19481318  0.44939136     0.33700
C869        C  0.22240774  0.20028141  0.53027773    -0.20000
C870        C  0.19970190  0.21100586  0.52413960     0.36200
C871        C  0.20047026  0.21198299  0.51201101    -0.26000
C872        C  0.22346783  0.20262470  0.50595149     0.02600
C873        C  0.24643479  0.19430346  0.51208399     0.27400
C874        C  0.24564587  0.19304619  0.52417157    -0.25100
N875        N  0.17573682  0.21864309  0.53018129    -0.82500
H876        H  0.18295482  0.21899678  0.50723668     0.13300
C877        C  0.22329329  0.20124653  0.49317305     0.02600
N878        N  0.27030944  0.18605057  0.50599167    -0.81100
H879        H  0.26312309  0.18494085  0.52886559     0.18100
C880        C  0.23615479  0.23588374  0.48704229    -0.25900
C881        C  0.23603488  0.23647386  0.47495665     0.36100
C882        C  0.22312747  0.20123947  0.46885556    -0.19900
C883        C  0.21085863  0.16574739  0.47496758    -0.25200
C884        C  0.21067151  0.16559930  0.48712090     0.27500
H885        H  0.24594239  0.26298450  0.49173226     0.13200
N886        N  0.24861664  0.27320961  0.46881275    -0.82500
H887        H  0.20068281  0.13912527  0.47027246     0.18100
N888        N  0.19749091  0.12982227  0.49335995    -0.81100
H889        H  0.25697184  0.29661186  0.47455151     0.33700
H890        H  0.26385036  0.25926199  0.46405490     0.38200
H891        H  0.18899505  0.10645442  0.48766598     0.33700
H892        H  0.21144882  0.11188869  0.49798243     0.30400
H893        H  0.28546578  0.18077711  0.51176614     0.33700
H894        H  0.26802607  0.15564054  0.50134597     0.30400
H895        H  0.17044656  0.18779422  0.53407123     0.38300
H896        H  0.16093635  0.22642708  0.52440317     0.33700
C897        C  0.02708669  0.00498749  0.55117966    -0.20000
C898        C  0.03225245  0.04952331  0.55524690     0.36200
C899        C  0.05803112  0.06565765  0.55538959    -0.26000
C900        C  0.07862016  0.03809472  0.55159337     0.02600
C901        C  0.07333779  0.99430113  0.54713307     0.27400
C902        C  0.04765256  0.97816182  0.54700114    -0.25100
N903        N  0.01159835  0.07739573  0.55964974    -0.82500
H904        H  0.06223377  0.09936500  0.55882430     0.13300
C905        C  0.10560512  0.05555342  0.55252377     0.02600
N906        N  0.09409344  0.96635036  0.54284796    -0.81100
H907        H  0.04368592  0.94401388  0.54378693     0.18100
C908        C  0.12375276  0.03193823  0.55923995    -0.25900
C909        C  0.14872627  0.05027470  0.56118106     0.36100
C910        C  0.15543537  0.09278005  0.55626465    -0.19900
C911        C  0.13747786  0.11551858  0.54933690    -0.25200
C912        C  0.11283121  0.09703903  0.54725177     0.27500
H913        H  0.11804695  0.00009835  0.56332875     0.13200
N914        N  0.16670474  0.02715762  0.56853021    -0.82500
H915        H  0.14250887  0.14848492  0.54572889     0.18100
N916        N  0.09491621  0.12052430  0.53993891    -0.81100
H917        H  0.15866525  0.99637265  0.57149273     0.33700
H918        H  0.16967163  0.04768612  0.57578998     0.38200
H919        H  0.10321339  0.15078943  0.53677696     0.33700
H920        H  0.09140721  0.09959449  0.53280365     0.30400
H921        H  0.08692782  0.93488045  0.53993223     0.33700
H922        H  0.10216939  0.98291961  0.53568721     0.30400
H923        H  0.00431487  0.06160724  0.56708373     0.38300
H924        H  0.01872098  0.10940614  0.56218863     0.33700
C925        C  0.05429962  0.97715524  0.42681275    -0.20000
C926        C  0.07528246  0.97255888  0.43451516     0.36200
C927        C  0.09349030  0.00857341  0.43558250    -0.26000
C928        C  0.09129347  0.04874803  0.42906703     0.02600
C929        C  0.07055303  0.05316200  0.42132844     0.27400
C930        C  0.05239756  0.01740770  0.42026033    -0.25100
N931        N  0.07759613  0.93232351  0.44151202    -0.82500
H932        H  0.10962578  0.00520803  0.44144888     0.13300
C933        C  0.11146105  0.08517954  0.42997679     0.02600
N934        N  0.06784661  0.09429640  0.41469101    -0.81100
H935        H  0.03636979  0.02135920  0.41436131     0.18100
C936        C  0.12631117  0.09606189  0.42019985    -0.25900
C937        C  0.14617830  0.12893346  0.42061676     0.36100
C938        C  0.15161535  0.15132902  0.43116776    -0.19900
C939        C  0.13619928  0.14167695  0.44087951    -0.25200
C940        C  0.11608567  0.10876205  0.44038351     0.27500
H941        H  0.12270133  0.07820882  0.41217518     0.13200
N942        N  0.16067306  0.13795692  0.41021868    -0.82500
H943        H  0.14063165  0.15832820  0.44898211     0.18100
N944        N  0.10064943  0.09859827  0.45041728    -0.81100
H945        H  0.14759735  0.14970980  0.40406679     0.33700
H946        H  0.17415534  0.16438580  0.41131730     0.38200
H947        H  0.10664893  0.11864437  0.45738798     0.33700
H948        H  0.08155633  0.10792566  0.44863670     0.30400
H949        H  0.05160745  0.09211538  0.40936256     0.33700
H950        H  0.06441913  0.12110485  0.42045314     0.30400
H951        H  0.08229406  0.90518900  0.43604045     0.38300
H952        H  0.09311358  0.93579376  0.44721390     0.33700
C953        C  0.98004276  0.91445232  0.45979700    -0.20000
C954        C  0.95559940  0.90259569  0.46446880     0.36200
C955        C  0.95199845  0.90318974  0.47648390    -0.26000
C956        C  0.97230607  0.91579138  0.48386870     0.02600
C957        C  0.99647258  0.92928700  0.47915142     0.27400
C958        C  0.00024406  0.92770189  0.46714710    -0.25100
N959        N  0.93497417  0.88782662  0.45702735    -0.82500
H960        H  0.93342390  0.89309536  0.48013823     0.13300
C961        C  0.96787534  0.91527318  0.49652569     0.02600
N962        N  0.01702026  0.94448103  0.48658172    -0.81100
H963        H  0.01903644  0.93649344  0.46349644     0.18100
C964        C  0.98175772  0.88492705  0.50348447    -0.25900
C965        C  0.97879589  0.88499627  0.51557825     0.36100
C966        C  0.96124835  0.91584156  0.52080616    -0.19900
C967        C  0.94673068  0.94491797  0.51365711    -0.25200
C968        C  0.95007250  0.94531757  0.50165743     0.27500
H969        H  0.99532389  0.86166970  0.49945246     0.13200
N970        N  0.99397167  0.85463551  0.52248128    -0.82500
H971        H  0.93311113  0.96865510  0.51745384     0.18100
N972        N  0.93589411  0.97692753  0.49466657    -0.81100
H973        H  0.00503025  0.83305124  0.51725521     0.33700
H974        H  0.00720966  0.87466504  0.52710480     0.38200
H975        H  0.92349025  0.99671185  0.49975027     0.33700
H976        H  0.94933112  0.99954028  0.49094027     0.30400
H977        H  0.03353273  0.95317734  0.48175881     0.33700
H978        H  0.01086787  0.97450782  0.49061539     0.30400
H979        H  0.92978134  0.91567215  0.45192832     0.38300
H980        H  0.91850790  0.87878660  0.46183686     0.33700
C981        C  0.79434970  0.77035517  0.42947521    -0.20000
C982        C  0.80531911  0.81395097  0.42741175     0.36200
C983        C  0.83250303  0.81890581  0.42730282    -0.26000
C984        C  0.84870594  0.78139354  0.42935588     0.02600
C985        C  0.83776176  0.73858323  0.43202936     0.27400
C986        C  0.81073622  0.73359345  0.43214429    -0.25100
N987        N  0.78907753  0.85235329  0.42493117    -0.82500
H988        H  0.84118481  0.85194210  0.42539897     0.13300
C989        C  0.87709403  0.78715361  0.42815126     0.02600
N990        N  0.85414167  0.70005069  0.43423580    -0.81100
H991        H  0.80242365  0.70022122  0.43399060     0.18100
C992        C  0.89314786  0.78150336  0.43776060    -0.25900
C993        C  0.91974686  0.79245646  0.43711880     0.36100
C994        C  0.93002744  0.80972586  0.42672939    -0.19900
C995        C  0.91439984  0.81153895  0.41690877    -0.25200
C996        C  0.88802406  0.79995164  0.41748781     0.27500
H997        H  0.88465884  0.77071467  0.44588057     0.13200
N998        N  0.93583263  0.78956490  0.44714381    -0.82500
H999        H  0.92250479  0.82474217  0.40893076     0.18100
N1000       N  0.87202972  0.80273634  0.40741797    -0.81100
H1001       H  0.92505661  0.77755645  0.45418801     0.33700
H1002       H  0.95004581  0.76512329  0.44546034     0.38200
H1003       H  0.88304978  0.81311063  0.40028326     0.33700
H1004       H  0.86522800  0.76973744  0.40560506     0.30400
H1005       H  0.84297769  0.67096477  0.43611559     0.33700
H1006       H  0.86435733  0.69289792  0.42664773     0.30400
H1007       H  0.77882296  0.86017489  0.43246142     0.38300
H1008       H  0.80038954  0.88123258  0.42301261     0.33700
C1009       C  0.64573382  0.69022045  0.42532354    -0.20000
C1010       C  0.63339647  0.67515824  0.41512839     0.36200
C1011       C  0.61213844  0.64506937  0.41593543    -0.26000
C1012       C  0.60318436  0.62923080  0.42664612     0.02600
C1013       C  0.61468783  0.64578854  0.43681599     0.27400
C1014       C  0.63582444  0.67636991  0.43605140    -0.25100
N1015       N  0.64250199  0.68820171  0.40385858    -0.82500
H1016       H  0.60313646  0.63257500  0.40811665     0.13300
C1017       C  0.58227547  0.59416574  0.42703491     0.02600
N1018       N  0.60539540  0.63022299  0.44783587    -0.81100
H1019       H  0.64569759  0.68706763  0.44383089     0.18100
C1020       C  0.58802073  0.54948343  0.43051525    -0.25900
C1021       C  0.56882412  0.51485156  0.43062330     0.36100
C1022       C  0.54314366  0.52551990  0.42734243    -0.19900
C1023       C  0.53770305  0.57062569  0.42384703    -0.25200
C1024       C  0.55692132  0.60488387  0.42368657     0.27500
H1025       H  0.60770418  0.54152542  0.43300055     0.13200
N1026       N  0.57542618  0.46928185  0.43409389    -0.82500
H1027       H  0.51822789  0.57962429  0.42130175     0.18100
N1028       N  0.55078202  0.65070206  0.42022212    -0.81100
H1029       H  0.59478106  0.46793054  0.43671339     0.33700
H1030       H  0.57400978  0.44832969  0.42682138     0.38200
H1031       H  0.53123529  0.65301010  0.41795258     0.33700
H1032       H  0.55338972  0.67198700  0.42736779     0.30400
H1033       H  0.61618715  0.64514504  0.45446659     0.33700
H1034       H  0.58635388  0.64170462  0.44882665     0.30400
H1035       H  0.65794749  0.71144447  0.40432738     0.38300
H1036       H  0.62743406  0.70552044  0.39980362     0.33700
C1037       C  0.65176745  0.58099334  0.54530843    -0.20000
C1038       C  0.64109063  0.54345362  0.55132869     0.36200
C1039       C  0.61447043  0.53424026  0.55048706    -0.26000
C1040       C  0.59835717  0.56241296  0.54388798     0.02600
C1041       C  0.60925481  0.59801867  0.53729590     0.27400
C1042       C  0.63593214  0.60690765  0.53805171    -0.25100
N1043       N  0.65641656  0.51633155  0.55892187    -0.82500
H1044       H  0.60605838  0.50651686  0.55548635     0.13300
C1045       C  0.56998424  0.55540684  0.54438998     0.02600
N1046       N  0.59301319  0.62588945  0.53020343    -0.81100
H1047       H  0.64420441  0.63596548  0.53349795     0.18100
C1048       C  0.55423055  0.58831074  0.54976267    -0.25900
C1049       C  0.52758354  0.57983290  0.55165910     0.36100
C1050       C  0.51690674  0.53768416  0.54811349    -0.19900
C1051       C  0.53242195  0.50657040  0.54197673    -0.25200
C1052       C  0.55885446  0.51493769  0.54011603     0.27500
H1053       H  0.56300675  0.61967498  0.55291785     0.13200
N1054       N  0.51191107  0.61226038  0.55779151    -0.82500
H1055       H  0.52405457  0.47447605  0.53905974     0.18100
N1056       N  0.57467073  0.48193059  0.53423647    -0.81100
H1057       H  0.52305676  0.64076222  0.56015276     0.33700
H1058       H  0.49786648  0.62409057  0.55209135     0.38200
H1059       H  0.56351897  0.45360867  0.53174464     0.33700
H1060       H  0.58157612  0.49717334  0.52666689     0.30400
H1061       H  0.60406057  0.65102379  0.52600086     0.33700
H1062       H  0.58522934  0.60484606  0.52378755     0.30400
H1063       H  0.66435324  0.53767190  0.56522133     0.38300
H1064       H  0.67163687  0.50214090  0.55414081     0.33700
C1065       C  0.78309088  0.71687327  0.56016718    -0.20000
C1066       C  0.78162993  0.75970695  0.56590704     0.36200
C1067       C  0.80300535  0.78977586  0.56560442    -0.26000
C1068       C  0.82600424  0.77775184  0.55998853     0.02600
C1069       C  0.82810049  0.73436435  0.55477717     0.27400
C1070       C  0.80661057  0.70431645  0.55490743    -0.25100
N1071       N  0.75844413  0.77277282  0.57198547    -0.82500
H1072       H  0.80181174  0.82279712  0.56981290     0.13300
C1073       C  0.84801627  0.81062526  0.55988627     0.02600
N1074       N  0.85190384  0.72143671  0.54919345    -0.81100
H1075       H  0.80795922  0.67175031  0.55050019     0.18100
C1076       C  0.86975446  0.80118059  0.56657084    -0.25900
C1077       C  0.89140083  0.83057899  0.56654223     0.36100
C1078       C  0.89154188  0.86997378  0.55942882    -0.19900
C1079       C  0.86921215  0.88041974  0.55311095    -0.25200
C1080       C  0.84741246  0.85098663  0.55325965     0.27500
H1081       H  0.86978390  0.77061200  0.57183640     0.13200
N1082       N  0.91325636  0.82047254  0.57372051    -0.82500
H1083       H  0.86914593  0.91055540  0.54769898     0.18100
N1084       N  0.82489038  0.86131412  0.54653911    -0.81100
H1085       H  0.91479994  0.84662678  0.57982567     0.33700
H1086       H  0.91010969  0.79014370  0.57830453     0.38200
H1087       H  0.82750196  0.89226749  0.54216861     0.33700
H1088       H  0.82301942  0.83590401  0.54025395     0.30400
H1089       H  0.85034363  0.68839290  0.54581457     0.33700
H1090       H  0.85482219  0.74341685  0.54220103     0.30400
H1091       H  0.76049017  0.80544138  0.57554466     0.38300
H1092       H  0.75599319  0.75017712  0.57888753     0.33700
C1093       C  0.72313810  0.70374791  0.45977990    -0.20000
C1094       C  0.71586381  0.66168848  0.46485251     0.36200
C1095       C  0.71604300  0.65764056  0.47695294    -0.26000
C1096       C  0.72383462  0.69445261  0.48394525     0.02600
C1097       C  0.73201440  0.73571753  0.47886204     0.27400
C1098       C  0.73159314  0.73992092  0.46686269    -0.25100
N1099       N  0.70732617  0.62411406  0.45780933    -0.82500
H1100       H  0.70995279  0.62587033  0.48097057     0.13300
C1101       C  0.72301677  0.69006234  0.49662452     0.02600
N1102       N  0.74028797  0.77344265  0.48594060    -0.81100
H1103       H  0.73754586  0.77209423  0.46300462     0.18100
C1104       C  0.74636776  0.68741845  0.50269369    -0.25900
C1105       C  0.74635891  0.68342000  0.51473925     0.36100
C1106       C  0.72253498  0.68270099  0.52078302    -0.19900
C1107       C  0.69920753  0.68694849  0.51474671    -0.25200
C1108       C  0.69922095  0.69047100  0.50267145     0.27500
H1109       H  0.76458770  0.68788433  0.49798542     0.13200
N1110       N  0.77037588  0.67943871  0.52088060    -0.82500
H1111       H  0.68095023  0.68554396  0.51941960     0.18100
N1112       N  0.67523459  0.69384619  0.49649466    -0.81100
H1113       H  0.78614097  0.68042439  0.51517597     0.33700
H1114       H  0.77217985  0.70810180  0.52621749     0.38200
H1115       H  0.65946425  0.69312687  0.50219697     0.33700
H1116       H  0.67503443  0.72580828  0.49247402     0.30400
H1117       H  0.74589860  0.80131056  0.48085005     0.33700
H1118       H  0.72427528  0.78401427  0.49080193     0.30400
H1119       H  0.72336178  0.61286511  0.45307743     0.38300
H1120       H  0.70145670  0.59654654  0.46295503     0.33700
C1121       C  0.98295546  0.26351855  0.83804443    -0.20000
C1122       C  0.96194085  0.25927046  0.84584624     0.36200
C1123       C  0.96387224  0.27897343  0.85691752    -0.26000
C1124       C  0.98635068  0.30272586  0.86034816     0.02600
C1125       C  0.00744258  0.30648339  0.85262011     0.27400
C1126       C  0.00548939  0.28705801  0.84157057    -0.25100
N1127       N  0.93854781  0.23598448  0.84243950    -0.82500
H1128       H  0.94780121  0.27576214  0.86292767     0.13300
C1129       C  0.98809962  0.32149621  0.87225266     0.02600
N1130       N  0.03070520  0.33027522  0.85601652    -0.81100
H1131       H  0.02167561  0.29052236  0.83562766     0.18100
C1132       C  0.00594560  0.30244308  0.87985975    -0.25900
C1133       C  0.00749933  0.31721097  0.89132410     0.36100
C1134       C  0.99069687  0.35169684  0.89545644    -0.19900
C1135       C  0.97356222  0.37226968  0.88767432    -0.25200
C1136       C  0.97215082  0.35753676  0.87609643     0.27500
H1137       H  0.01857742  0.27533225  0.87691244     0.13200
N1138       N  0.02639909  0.29710259  0.89871486    -0.82500
H1139       H  0.96081649  0.39907189  0.89068368     0.18100
N1140       N  0.95457038  0.37883281  0.86823406    -0.81100
H1141       H  0.04475273  0.30252986  0.89505443     0.33700
H1142       H  0.02291028  0.26185000  0.89900112     0.38200
H1143       H  0.94420829  0.40472675  0.87238286     0.33700
H1144       H  0.96572047  0.39470271  0.86181528     0.30400
H1145       H  0.04449382  0.32974586  0.84937895     0.33700
H1146       H  0.02593645  0.36455648  0.85735889     0.30400
H1147       H  0.93022943  0.25489804  0.83580596     0.38300
H1148       H  0.92507290  0.23557647  0.84920671     0.33700
C1149       C  0.96145806  0.09752764  0.64306060    -0.20000
C1150       C  0.96277652  0.12298241  0.63273053     0.36200
C1151       C  0.96293854  0.09970348  0.62204132    -0.26000
C1152       C  0.96209841  0.05159936  0.62144557     0.02600
C1153       C  0.96128871  0.02631613  0.63174559     0.27400
C1154       C  0.96109408  0.04940242  0.64236484    -0.25100
N1155       N  0.96290553  0.17209454  0.63306080    -0.82500
H1156       H  0.96354223  0.11913544  0.61410866     0.13300
C1157       C  0.96077375  0.02797532  0.61003432     0.02600
N1158       N  0.96002482  0.97719415  0.63138297    -0.81100
H1159       H  0.96036160  0.02942138  0.65020944     0.18100
C1160       C  0.97996762  0.99641922  0.60680027    -0.25900
C1161       C  0.97902001  0.97329058  0.59610855     0.36100
C1162       C  0.95853404  0.98232694  0.58841173    -0.19900
C1163       C  0.93908206  0.01313038  0.59185407    -0.25200
C1164       C  0.93988268  0.03566993  0.60254280     0.27500
H1165       H  0.99590512  0.99018704  0.61261444     0.13200
N1166       N  0.99930790  0.94227875  0.59290992    -0.82500
H1167       H  0.92312759  0.02006212  0.58610035     0.18100
N1168       N  0.91947571  0.06634342  0.60583959    -0.81100
H1169       H  0.01354481  0.94136666  0.59927630     0.33700
H1170       H  0.99114100  0.90946048  0.59259801     0.38200
H1171       H  0.90560643  0.06857276  0.59933978     0.33700
H1172       H  0.91002366  0.05225714  0.61301097     0.30400
H1173       H  0.95966485  0.96362508  0.63970563     0.33700
H1174       H  0.94241935  0.96791878  0.62757166     0.30400
H1175       H  0.98065375  0.18260797  0.63652043     0.38300
H1176       H  0.96234194  0.18542990  0.62471901     0.33700
C1177       C  0.96401822  0.17739488  0.70930031    -0.20000
C1178       C  0.96205442  0.21995888  0.71493858     0.36200
C1179       C  0.96499629  0.22202891  0.72702300    -0.26000
C1180       C  0.97033571  0.18258312  0.73351039     0.02600
C1181       C  0.97334291  0.14049950  0.72778630     0.27400
C1182       C  0.96986927  0.13828157  0.71581398    -0.25100
N1183       N  0.95604041  0.26038187  0.70850886    -0.82500
H1184       H  0.96285802  0.25444110  0.73144031     0.13300
C1185       C  0.97285379  0.18572219  0.74627980     0.02600
N1186       N  0.98009673  0.10023519  0.73415573    -0.81100
H1187       H  0.97199189  0.10564988  0.71148705     0.18100
C1188       C  0.95551686  0.16144631  0.75345474    -0.25900
C1189       C  0.95664559  0.16532247  0.76557020     0.36100
C1190       C  0.97582671  0.19366788  0.77063583    -0.19900
C1191       C  0.99365866  0.21660252  0.76335901    -0.25200
C1192       C  0.99241567  0.21283903  0.75130839     0.27500
H1193       H  0.94058583  0.14033571  0.74955369     0.13200
N1194       N  0.93796721  0.14159082  0.77264911    -0.82500
H1195       H  0.00869750  0.23796846  0.76708388     0.18100
N1196       N  0.01099064  0.23643586  0.74413380    -0.81100
H1197       H  0.92561864  0.12151909  0.76758464     0.33700
H1198       H  0.92631363  0.16621172  0.77660525     0.38200
H1199       H  0.02407777  0.25520948  0.74914845     0.33700
H1200       H  0.02183260  0.21172162  0.73977761     0.30400
H1201       H  0.98154830  0.07198734  0.72867053     0.33700
H1202       H  0.99857632  0.10569209  0.73758979     0.30400
H1203       H  0.97193305  0.26767898  0.70317119     0.38300
H1204       H  0.95410407  0.28841677  0.71403503     0.33700
C1205       C  0.71000469  0.24735232  0.89265001    -0.20000
C1206       C  0.68924738  0.27629764  0.88961216     0.36200
C1207       C  0.68959294  0.29847623  0.87890504    -0.26000
C1208       C  0.70978921  0.29164340  0.87098536     0.02600
C1209       C  0.73003426  0.26149988  0.87376684     0.27400
C1210       C  0.73001403  0.23978318  0.88460285    -0.25100
N1211       N  0.66775439  0.28290828  0.89737655    -0.82500
H1212       H  0.67384851  0.32103486  0.87664778     0.13300
C1213       C  0.70831576  0.31400799  0.85952275     0.02600
N1214       N  0.75043668  0.25301371  0.86556809    -0.81100
H1215       H  0.74596059  0.21770262  0.88686366     0.18100
C1216       C  0.72737528  0.34586971  0.85603231    -0.25900
C1217       C  0.72643172  0.36677834  0.84508068     0.36100
C1218       C  0.70620976  0.35481082  0.83745045    -0.19900
C1219       C  0.68664755  0.32441553  0.84125584    -0.25200
C1220       C  0.68756515  0.30375696  0.85211055     0.27500
H1221       H  0.74305830  0.35422301  0.86185841     0.13200
N1222       N  0.74636310  0.39856566  0.84158589    -0.82500
H1223       H  0.67081805  0.31547881  0.83555952     0.18100
N1224       N  0.66780199  0.27142015  0.85553855    -0.81100
H1225       H  0.76030352  0.40209098  0.84803707     0.33700
H1226       H  0.73771212  0.43057497  0.84074762     0.38200
H1227       H  0.65377885  0.26783163  0.84912748     0.33700
H1228       H  0.67660419  0.23953207  0.85639211     0.30400
H1229       H  0.76388338  0.23015514  0.86894388     0.33700
H1230       H  0.74210555  0.23688748  0.85843371     0.30400
H1231       H  0.65822047  0.25140870  0.89829438     0.38300
H1232       H  0.65428443  0.30543483  0.89387472     0.33700
C1233       C  0.77470032  0.32589772  0.79951479    -0.20000
C1234       C  0.78465585  0.29327522  0.80718690     0.36200
C1235       C  0.81150114  0.28420678  0.80704688    -0.26000
C1236       C  0.82848120  0.30813097  0.79960607     0.02600
C1237       C  0.81824055  0.33968550  0.79171431     0.27400
C1238       C  0.79148306  0.34785045  0.79169185    -0.25100
N1239       N  0.76778637  0.27128607  0.81542314    -0.82500
H1240       H  0.81936787  0.25959417  0.81302029     0.13300
C1241       C  0.85700623  0.30123043  0.80034093     0.02600
N1242       N  0.83519788  0.36481705  0.78409497    -0.81100
H1243       H  0.78378382  0.37350771  0.78594568     0.18100
C1244       C  0.87084604  0.28807122  0.79043920    -0.25900
C1245       C  0.89773922  0.28083914  0.79079784     0.36100
C1246       C  0.91103341  0.28692596  0.80124030    -0.19900
C1247       C  0.89743319  0.30097278  0.81109114    -0.25200
C1248       C  0.87053347  0.30861194  0.81073453     0.27500
H1249       H  0.86047555  0.28221262  0.78247957     0.13200
N1250       N  0.91142947  0.26466755  0.78078879    -0.82500
H1251       H  0.90764837  0.30398022  0.81918897     0.18100
N1252       N  0.85684167  0.32304315  0.82090969    -0.81100
H1253       H  0.89879886  0.26105767  0.77383026     0.33700
H1254       H  0.92505673  0.28974811  0.77847473     0.38200
H1255       H  0.86956655  0.32640307  0.82783569     0.33700
H1256       H  0.84948237  0.35562955  0.81931244     0.30400
H1257       H  0.82457288  0.38660793  0.77881437     0.33700
H1258       H  0.84711614  0.38569052  0.78915971     0.30400
H1259       H  0.76088069  0.29641836  0.82104018     0.38300
H1260       H  0.77820384  0.24824449  0.82044637     0.33700
C1261       C  0.71376830  0.47571508  0.63996774    -0.20000
C1262       C  0.69360473  0.46325301  0.63234750     0.36200
C1263       C  0.69180947  0.48538154  0.62157757    -0.26000
C1264       C  0.70972522  0.51958585  0.61827601     0.02600
C1265       C  0.73043129  0.53049651  0.62568167     0.27400
C1266       C  0.73211744  0.50877429  0.63640181    -0.25100
N1267       N  0.67463706  0.42935212  0.63564531    -0.82500
H1268       H  0.67602813  0.47669331  0.61583575     0.13300
C1269       C  0.70736216  0.54317103  0.60695076     0.02600
N1270       N  0.74975283  0.56366613  0.62226771    -0.81100
H1271       H  0.74787419  0.51818910  0.64208932     0.18100
C1272       C  0.70669768  0.59129294  0.60653359    -0.25900
C1273       C  0.70823382  0.61500970  0.59598022     0.36100
C1274       C  0.71005158  0.58997315  0.58562462    -0.19900
C1275       C  0.70915134  0.54188491  0.58605718    -0.25200
C1276       C  0.70796872  0.51827015  0.59656469     0.27500
H1277       H  0.70590375  0.61041041  0.61452254     0.13200
N1278       N  0.70889488  0.66414215  0.59580385    -0.82500
H1279       H  0.70996911  0.52244460  0.57811607     0.18100
N1280       N  0.70824688  0.46911142  0.59671904    -0.81100
H1281       H  0.70723523  0.67723828  0.60415299     0.33700
H1282       H  0.72716164  0.67429076  0.59272586     0.38200
H1283       H  0.70845236  0.45600773  0.58834454     0.33700
H1284       H  0.72559534  0.45902755  0.60054765     0.30400
H1285       H  0.76357772  0.56816723  0.62872919     0.33700
H1286       H  0.75958293  0.55053051  0.61510805     0.30400
H1287       H  0.66386110  0.44270234  0.64250999     0.38300
H1288       H  0.66154136  0.42348593  0.62895930     0.33700
C1289       C  0.89243889  0.21981508  0.67070096    -0.20000
C1290       C  0.86723017  0.20434721  0.67377925     0.36200
C1291       C  0.84615786  0.23472927  0.67311936    -0.26000
C1292       C  0.84952857  0.27994855  0.66927221     0.02600
C1293       C  0.87435995  0.29488023  0.66576510     0.27400
C1294       C  0.89544548  0.26494895  0.66656704    -0.25100
N1295       N  0.86304554  0.15836419  0.67776113    -0.82500
H1296       H  0.82697413  0.22326052  0.67574659     0.13300
C1297       C  0.82696025  0.31149168  0.66906811     0.02600
N1298       N  0.87805962  0.34048810  0.66140300    -0.81100
H1299       H  0.91446539  0.27739295  0.66400214     0.18100
C1300       C  0.82767403  0.35210373  0.67555323    -0.25900
C1301       C  0.80633119  0.38197424  0.67590766     0.39300
C1302       C  0.78359721  0.37061975  0.66974006    -0.19900
C1303       C  0.78329073  0.33044123  0.66303201    -0.25200
C1304       C  0.80470948  0.30106210  0.66256675     0.27500
H1305       H  0.84484014  0.36008140  0.68053244     0.13200
N1306       N  0.80733908  0.42246988  0.68291689    -0.82500
H1307       H  0.76608040  0.32160619  0.65817191     0.18100
N1308       N  0.80393634  0.26054988  0.65554492    -0.81100
H1309       H  0.82480934  0.42419148  0.68742849     0.33700
H1310       H  0.80740292  0.45059488  0.67737139     0.38200
H1311       H  0.78610722  0.25760029  0.65135259     0.33700
H1312       H  0.81809022  0.26426584  0.64911829     0.30400
H1313       H  0.89753752  0.34635685  0.65925340     0.33700
H1314       H  0.86756719  0.34303431  0.65376074     0.30400
H1315       H  0.86651996  0.13651216  0.67080076     0.38300
H1316       H  0.84362754  0.15324748  0.68012439     0.33700
C1317       C  0.71178891  0.41687097  0.70764318    -0.20000
C1318       C  0.71099437  0.45645410  0.71472229     0.36200
C1319       C  0.70953393  0.45179203  0.72670808    -0.26000
C1320       C  0.70867362  0.40874408  0.73192882     0.02600
C1321       C  0.70834746  0.36912686  0.72491052     0.27400
C1322       C  0.70975580  0.37363387  0.71281887    -0.25100
N1323       N  0.71125205  0.50148768  0.70973647    -0.82500
H1324       H  0.70880441  0.48215210  0.73205615     0.13300
C1325       C  0.70763964  0.40645912  0.74475144     0.02600
N1326       N  0.70701135  0.32455096  0.73008064    -0.81100
H1327       H  0.70994390  0.34332338  0.70744912     0.18100
C1328       C  0.68724980  0.38267768  0.75014789    -0.25900
C1329       C  0.68507976  0.38104102  0.76220847     0.36100
C1330       C  0.70375883  0.40394044  0.76910479    -0.19900
C1331       C  0.72377768  0.42875242  0.76368975    -0.25200
C1332       C  0.72608389  0.42986466  0.75160739     0.27500
H1333       H  0.67272898  0.36575621  0.74490674     0.13200
N1334       N  0.66384762  0.35634476  0.76745165    -0.82500
H1335       H  0.73825820  0.44591917  0.76890169     0.18100
N1336       N  0.74737405  0.45400577  0.74626496    -0.81100
H1337       H  0.65215487  0.34097466  0.76119982     0.33700
H1338       H  0.65225293  0.38011794  0.77176649     0.38200
H1339       H  0.75914746  0.46946738  0.75247623     0.33700
H1340       H  0.75883164  0.42989708  0.74200544     0.30400
H1341       H  0.70681034  0.29910157  0.72375102     0.33700
H1342       H  0.72397753  0.32008018  0.73482148     0.30400
H1343       H  0.69405027  0.50513639  0.70510548     0.38300
H1344       H  0.71110077  0.52669467  0.71612480     0.33700
C1345       C  0.45211831  0.61837222  0.64732209    -0.20000
C1346       C  0.47291446  0.63130760  0.63995615     0.36200
C1347       C  0.47441472  0.61265390  0.62875707    -0.26000
C1348       C  0.45550415  0.58184550  0.62470976     0.02600
C1349       C  0.43424023  0.57045320  0.63183134     0.27400
C1350       C  0.43285095  0.58850748  0.64302888    -0.25100
N1351       N  0.49287311  0.66198715  0.64392752    -0.82500
H1352       H  0.49051558  0.62188462  0.62316081     0.13300
C1353       C  0.45740770  0.56307247  0.61282037     0.02600
N1354       N  0.41410514  0.54054549  0.62763816    -0.81100
H1355       H  0.41661728  0.57872193  0.64848513     0.18100
C1356       C  0.46023081  0.51576020  0.61109383    -0.25900
C1357       C  0.45974805  0.49651093  0.59993655     0.36100
C1358       C  0.45637146  0.52534130  0.59031396    -0.19900
C1359       C  0.45452273  0.57289002  0.59213195    -0.25200
C1360       C  0.45484718  0.59192504  0.60322946     0.27500
H1361       H  0.46224781  0.49371986  0.61851848     0.13200
N1362       N  0.46203501  0.44793997  0.59842908    -0.82500
H1363       H  0.45231851  0.59552860  0.58483566     0.18100
N1364       N  0.45191515  0.64038975  0.60482072    -0.81100
H1365       H  0.46487256  0.43189612  0.60635007     0.33700
H1366       H  0.44430903  0.43571784  0.59529747     0.38200
H1367       H  0.45040340  0.65693548  0.59688273     0.33700
H1368       H  0.43435802  0.64563905  0.60916185     0.30400
H1369       H  0.39986438  0.53525391  0.63395843     0.33700
H1370       H  0.40503416  0.55710652  0.62080349     0.30400
H1371       H  0.48448071  0.69417010  0.64494896     0.38300
H1372       H  0.50738900  0.66589603  0.63767142     0.33700
C1373       C  0.51513854  0.56981737  0.68433509    -0.20000
C1374       C  0.52226122  0.53638445  0.67621897     0.36200
C1375       C  0.54802384  0.52083272  0.67598557    -0.26000
C1376       C  0.56657467  0.53790442  0.68376905     0.02600
C1377       C  0.55897469  0.56958332  0.69225713     0.27400
C1378       C  0.53338458  0.58549781  0.69238020    -0.25100
N1379       N  0.50389087  0.52079774  0.66778978    -0.82500
H1380       H  0.55392016  0.49644921  0.66946475     0.13300
C1381       C  0.59393387  0.52277945  0.68276794     0.02600
N1382       N  0.57738056  0.58600245  0.70057745    -0.81100
H1383       H  0.52779722  0.61152271  0.69854965     0.18100
C1384       C  0.61399529  0.55513013  0.68113794    -0.25900
C1385       C  0.63996556  0.54144952  0.67955086     0.36100
C1386       C  0.64571575  0.49430775  0.67917452    -0.19900
C1387       C  0.62556560  0.46237635  0.68124208    -0.25200
C1388       C  0.59995784  0.47606745  0.68316197     0.27500
H1389       H  0.60929376  0.59115820  0.68096826     0.13200
N1390       N  0.66016224  0.57514737  0.67807858    -0.82500
H1391       H  0.62973605  0.42614838  0.68140495     0.18100
N1392       N  0.57997784  0.44267177  0.68552069    -0.81100
H1393       H  0.65237165  0.60804563  0.67807513     0.33700
H1394       H  0.67209220  0.57348888  0.68530873     0.38200
H1395       H  0.58757923  0.40964336  0.68545426     0.33700
H1396       H  0.57313822  0.44857309  0.69387979     0.30400
H1397       H  0.56871000  0.60948223  0.70616297     0.33700
H1398       H  0.58288102  0.55812435  0.70560591     0.30400
H1399       H  0.48914327  0.50309974  0.67216216     0.38300
H1400       H  0.51250934  0.49729386  0.66219197     0.33700
C1401       C  0.47872460  0.84637668  0.89960591    -0.20000
C1402       C  0.45917861  0.85831869  0.89166004     0.36200
C1403       C  0.45818424  0.83618537  0.88082423    -0.26000
C1404       C  0.47639715  0.80274854  0.87770898     0.02600
C1405       C  0.49592389  0.79113135  0.88559852     0.27400
C1406       C  0.49693512  0.81306246  0.89634934    -0.25100
N1407       N  0.44000844  0.89172331  0.89467429    -0.82500
H1408       H  0.44329568  0.84535079  0.87472280     0.13300
C1409       C  0.47563821  0.78084999  0.86607430     0.02600
N1410       N  0.51453294  0.75652639  0.88270290    -0.81100
H1411       H  0.51206532  0.80356959  0.90229819     0.18100
C1412       C  0.49749918  0.78470334  0.85887660    -0.25900
C1413       C  0.49839539  0.76318153  0.84805547     0.36100
C1414       C  0.47672929  0.73757947  0.84416504    -0.19900
C1415       C  0.45486605  0.73332431  0.85139889    -0.25200
C1416       C  0.45409477  0.75474178  0.86231291     0.27500
H1417       H  0.51406785  0.80459243  0.86176508     0.13200
N1418       N  0.52135853  0.76706511  0.84101396    -0.82500
H1419       H  0.43810355  0.71421985  0.84841048     0.18100
N1420       N  0.43157641  0.75005602  0.86958606    -0.81100
H1421       H  0.53545217  0.78720708  0.84508142     0.33700
H1422       H  0.52916399  0.73434694  0.84017089     0.38200
H1423       H  0.41737293  0.73008146  0.86554737     0.33700
H1424       H  0.43712141  0.73226572  0.87696028     0.30400
H1425       H  0.52774349  0.75209081  0.88939444     0.33700
H1426       H  0.50444322  0.72555806  0.88182309     0.30400
H1427       H  0.44941383  0.92348514  0.89510297     0.38300
H1428       H  0.42620936  0.89445638  0.88815679     0.33700
C1429       C  0.63856419  0.45368114  0.80816445    -0.20000
C1430       C  0.61787607  0.45406751  0.80027441     0.36200
C1431       C  0.59829337  0.48722596  0.80149052    -0.26000
C1432       C  0.59901526  0.51941229  0.81048584     0.02600
C1433       C  0.61913119  0.51779866  0.81859895     0.27400
C1434       C  0.63865956  0.48501318  0.81735321    -0.25100
N1435       N  0.61759675  0.42272589  0.79074028    -0.82500
H1436       H  0.58260620  0.48846318  0.79533450     0.13300
C1437       C  0.57865496  0.55480748  0.81139145     0.02600
N1438       N  0.61995832  0.55024397  0.82790494    -0.81100
H1439       H  0.65460864  0.48483326  0.82339419     0.18100
C1440       C  0.56020937  0.55153308  0.82024342    -0.25900
C1441       C  0.54025622  0.58357597  0.82124207     0.36100
C1442       C  0.53861680  0.61992050  0.81327454    -0.19900
C1443       C  0.55790308  0.62452486  0.80475200    -0.25200
C1444       C  0.57793907  0.59217044  0.80372644     0.27500
H1445       H  0.56106233  0.52345631  0.82630767     0.13200
N1446       N  0.52156215  0.57894486  0.83035760    -0.82500
H1447       H  0.55671373  0.65220043  0.79859244     0.18100
N1448       N  0.59735130  0.59664770  0.79485858    -0.81100
H1449       H  0.53146769  0.57967232  0.83818543     0.33700
H1450       H  0.51255708  0.54693263  0.82956516     0.38200
H1451       H  0.59400218  0.62577340  0.78989035     0.33700
H1452       H  0.61522065  0.60178814  0.79889146     0.30400
H1453       H  0.63598355  0.54432593  0.83315816     0.33700
H1454       H  0.62266676  0.58272362  0.82432166     0.30400
H1455       H  0.61512786  0.38980879  0.79408814     0.38300
H1456       H  0.60155756  0.42870395  0.78550157     0.33700
C1457       C  0.46725999  0.66161572  0.77740449    -0.20000
C1458       C  0.44463147  0.64218144  0.77253341     0.36200
C1459       C  0.44201349  0.64096203  0.76043959    -0.26000
C1460       C  0.46155171  0.65854420  0.75315418     0.02600
C1461       C  0.48450268  0.67624432  0.75800278     0.27400
C1462       C  0.48705083  0.67780484  0.77002607    -0.25100
N1463       N  0.42387590  0.62601656  0.77981668    -0.82500
H1464       H  0.42445652  0.62708297  0.75666310     0.13300
C1465       C  0.45804147  0.65808748  0.74043915     0.02600
N1466       N  0.50507848  0.69286254  0.75066815    -0.81100
H1467       H  0.50453679  0.69249143  0.77368188     0.18100
C1468       C  0.45753890  0.69957523  0.73434578    -0.25900
C1469       C  0.45575852  0.70038538  0.72223133     0.36100
C1470       C  0.45408291  0.65870479  0.71610518    -0.19900
C1471       C  0.45412009  0.61731638  0.72228942    -0.25200
C1472       C  0.45635514  0.61657062  0.73434132     0.27500
H1473       H  0.45877037  0.73145376  0.73908387     0.13200
N1474       N  0.45485565  0.74327454  0.71622968    -0.82500
H1475       H  0.45302936  0.58517661  0.71765703     0.18100
N1476       N  0.45742322  0.57380646  0.74040463    -0.81100
H1477       H  0.45433861  0.77047043  0.72207731     0.33700
H1478       H  0.47224961  0.74695766  0.71164203     0.38200
H1479       H  0.45588137  0.54634700  0.73466920     0.33700
H1480       H  0.47575353  0.57161562  0.74416287     0.30400
H1481       H  0.52060719  0.70511302  0.75557191     0.33700
H1482       H  0.51205779  0.66507281  0.74593947     0.30400
H1483       H  0.43050743  0.59701085  0.78410489     0.38300
H1484       H  0.40809086  0.61521997  0.77486761     0.33700
C1485       C  0.21420501  0.11530969  0.59625878    -0.20000
C1486       C  0.20368192  0.13866086  0.60587177     0.36200
C1487       C  0.20231141  0.11637438  0.61664474    -0.26000
C1488       C  0.21119881  0.07141737  0.61800709     0.02600
C1489       C  0.22108766  0.04778997  0.60842687     0.27400
C1490       C  0.22230405  0.06970856  0.59769716    -0.25100
N1491       N  0.19490165  0.18494246  0.60477865    -0.82500
H1492       H  0.19497751  0.13452477  0.62410648     0.13300
C1493       C  0.21324431  0.05132997  0.62970340     0.02600
N1494       N  0.23048818  0.00192121  0.60970721    -0.81100
H1495       H  0.23001243  0.05091277  0.59042082     0.18100
C1496       C  0.19731378  0.01437083  0.63304998    -0.25900
C1497       C  0.20004701  0.99352293  0.64395298     0.36100
C1498       C  0.21912841  0.01024899  0.65164743    -0.19900
C1499       C  0.23529998  0.04671945  0.64802676    -0.25200
C1500       C  0.23261596  0.06717274  0.63720486     0.27500
H1501       H  0.18275886  0.00178288  0.62711849     0.13200
N1502       N  0.18320157  0.95633845  0.64725034    -0.82500
H1503       H  0.25024304  0.05975825  0.65369727     0.18100
N1504       N  0.24964277  0.10396466  0.63374560    -0.81100
H1505       H  0.16958040  0.94973230  0.64081291     0.33700
H1506       H  0.19459521  0.92703865  0.64784020     0.38200
H1507       H  0.26271576  0.11204773  0.64030380     0.33700
H1508       H  0.26073581  0.09242036  0.62677611     0.30400
H1509       H  0.23697186  0.98906876  0.60180416     0.33700
H1510       H  0.24667140  0.00327244  0.61508537     0.30400
H1511       H  0.21116154  0.20547428  0.60303676     0.38300
H1512       H  0.18714929  0.19657036  0.61257849     0.33700
C1513       C  0.02549643  0.08971554  0.68390731    -0.20000
C1514       C  0.03497218  0.04644653  0.68086181     0.36200
C1515       C  0.06073156  0.03528721  0.68356104    -0.26000
C1516       C  0.07687179  0.06692065  0.68927685     0.02600
C1517       C  0.06675701  0.10880543  0.69304570     0.27400
C1518       C  0.04120639  0.11988185  0.69027708    -0.25100
N1519       N  0.01907350  0.01499137  0.67454228    -0.82500
H1520       H  0.06849808  0.00277475  0.68075992     0.13300
C1521       C  0.10481834  0.05760879  0.69051221     0.02600
N1522       N  0.08275028  0.14029010  0.69941551    -0.81100
H1523       H  0.03365532  0.15286707  0.69285234     0.18100
C1524       C  0.12278378  0.08359002  0.68407492    -0.25900
C1525       C  0.14938077  0.07328759  0.68420385     0.36100
C1526       C  0.15792641  0.03659714  0.69098225    -0.19900
C1527       C  0.14007000  0.01259637  0.69796139    -0.25200
C1528       C  0.11354765  0.02273554  0.69778462     0.27500
H1529       H  0.11583253  0.11067627  0.67856586     0.13200
N1530       N  0.16730084  0.09741731  0.67683233    -0.82500
H1531       H  0.14673180  0.98420758  0.70312290     0.18100
N1532       N  0.09535157  0.99699194  0.70467060    -0.81100
H1533       H  0.15763449  0.12216551  0.67203702     0.33700
H1534       H  0.18035506  0.11503870  0.68211354     0.38200
H1535       H  0.10493899  0.97214630  0.70946125     0.33700
H1536       H  0.08702908  0.01954359  0.71060354     0.30400
H1537       H  0.07240641  0.16982486  0.70147494     0.33700
H1538       H  0.08735550  0.12465973  0.70722165     0.30400
H1539       H  0.02850814  0.00761805  0.66677395     0.38300
H1540       H  0.01764619  0.98469885  0.67927999     0.33700
C1541       C  0.38985618  0.73078053  0.67924967    -0.20000
C1542       C  0.36437066  0.72030284  0.68304983     0.36200
C1543       C  0.34515052  0.75431069  0.68260408    -0.26000
C1544       C  0.35077123  0.79851141  0.67845708     0.02600
C1545       C  0.37598806  0.80867105  0.67446214     0.27400
C1546       C  0.39516077  0.77498946  0.67495000    -0.25100
N1547       N  0.35809001  0.67573093  0.68751283    -0.82500
H1548       H  0.32574474  0.74659873  0.68571867     0.13300
C1549       C  0.33010103  0.83384326  0.67835100     0.02600
N1550       N  0.38200027  0.85313071  0.66983497    -0.81100
H1551       H  0.41448081  0.78356729  0.67188242     0.18100
C1552       C  0.33411292  0.87599576  0.68395678    -0.25900
C1553       C  0.31452901  0.90936940  0.68442354     0.36100
C1554       C  0.29015420  0.89977559  0.67943657    -0.19900
C1555       C  0.28671460  0.85833071  0.67340779    -0.25200
C1556       C  0.30638208  0.82557242  0.67274588     0.27500
H1557       H  0.35245586  0.88249346  0.68818748     0.13200
N1558       N  0.31903637  0.95186673  0.69033199    -0.82500
H1559       H  0.26830625  0.85095689  0.66931828     0.18100
N1560       N  0.30228671  0.78372749  0.66647012    -0.81100
H1561       H  0.33757961  0.95252926  0.69393533     0.33700
H1562       H  0.31887412  0.97783011  0.68415793     0.38200
H1563       H  0.28369684  0.78271042  0.66292488     0.33700
H1564       H  0.31538719  0.78350300  0.65956029     0.30400
H1565       H  0.40150083  0.85527970  0.66734734     0.33700
H1566       H  0.37105862  0.85721201  0.66236135     0.30400
H1567       H  0.36812663  0.67187093  0.69524147     0.38300
H1568       H  0.33834842  0.67335985  0.68957555     0.33700
C1569       C  0.20276384  0.86474698  0.84691955    -0.20000
C1570       C  0.21814406  0.88143987  0.85610887     0.36200
C1571       C  0.21862572  0.85718331  0.86658276    -0.26000
C1572       C  0.20454161  0.81629699  0.86803202     0.02600
C1573       C  0.18868000  0.80025142  0.85905240     0.27400
C1574       C  0.18771621  0.82481871  0.84869279    -0.25100
N1575       N  0.23375134  0.92205969  0.85475767    -0.82500
H1576       H  0.23057517  0.86958013  0.87358768     0.13300
C1577       C  0.20697206  0.79000600  0.87890305     0.02600
N1578       N  0.17415729  0.75834596  0.86037879    -0.81100
H1579       H  0.17569644  0.81160730  0.84181247     0.18100
C1580       C  0.18490295  0.78248784  0.88578794    -0.25900
C1581       C  0.18652476  0.75840552  0.89621501     0.36100
C1582       C  0.21076017  0.74161464  0.89983365    -0.19900
C1583       C  0.23267509  0.74783968  0.89276964    -0.25200
C1584       C  0.23103775  0.77200137  0.88233831     0.27500
H1585       H  0.16641174  0.79596857  0.88306374     0.13200
N1586       N  0.16369313  0.75103956  0.90316937    -0.82500
H1587       H  0.25128760  0.73520146  0.89559024     0.18100
N1588       N  0.25371913  0.77866328  0.87525448    -0.81100
H1589       H  0.16018460  0.71577853  0.90348609     0.33700
H1590       H  0.14748367  0.76564178  0.89931057     0.38200
H1591       H  0.26989688  0.76371897  0.87904793     0.33700
H1592       H  0.25058686  0.76137384  0.86748883     0.30400
H1593       H  0.16337115  0.75127078  0.85298429     0.33700
H1594       H  0.18747007  0.73179641  0.86122056     0.30400
H1595       H  0.24870138  0.91440119  0.84896564     0.38300
H1596       H  0.24274920  0.93074721  0.86251436     0.33700
C1597       C  0.27666804  0.84628309  0.81248516    -0.20000
C1598       C  0.28351664  0.81879605  0.80302324     0.36200
C1599       C  0.30895641  0.80258013  0.80204137    -0.26000
C1600       C  0.32760798  0.81355889  0.81037501     0.02600
C1601       C  0.32067237  0.84014978  0.81999750     0.27400
C1602       C  0.29528736  0.85663167  0.82090395    -0.25100
N1603       N  0.26505205  0.80889054  0.79418372    -0.82500
H1604       H  0.31426374  0.78160868  0.79471099     0.13300
C1605       C  0.35383433  0.79413841  0.80938707     0.02600
N1606       N  0.33939841  0.85002098  0.82880530    -0.81100
H1607       H  0.28998277  0.87778636  0.82820358     0.18100
C1608       C  0.37539733  0.82278327  0.80739606    -0.25900
C1609       C  0.40071190  0.80492902  0.80689973     0.36100
C1610       C  0.40432371  0.75756304  0.80865700    -0.19900
C1611       C  0.38231661  0.72923439  0.81034811    -0.25200
C1612       C  0.35728592  0.74701834  0.81083204     0.27500
H1613       H  0.37240311  0.85912044  0.80625563     0.13200
N1614       N  0.42251635  0.83475831  0.80479260    -0.82500
H1615       H  0.38451086  0.69278098  0.81157315     0.18100
N1616       N  0.33531995  0.71753547  0.81304108    -0.81100
H1617       H  0.41645710  0.86868347  0.80411804     0.33700
H1618       H  0.43026524  0.82603603  0.79675624     0.38200
H1619       H  0.34113833  0.68353246  0.81382659     0.33700
H1620       H  0.32742070  0.72688149  0.82100825     0.30400
H1621       H  0.33118162  0.87024469  0.83527687     0.33700
H1622       H  0.34434138  0.81904011  0.83266287     0.30400
H1623       H  0.26325301  0.77336074  0.79347630     0.38300
H1624       H  0.27248213  0.82138889  0.78639565     0.33700
C1625       C  0.04419139  0.15074456  0.80862504    -0.20000
C1626       C  0.06640139  0.15359005  0.80148416     0.36200
C1627       C  0.08622487  0.12104348  0.80276804    -0.26000
C1628       C  0.08402146  0.08598057  0.81098588     0.02600
C1629       C  0.06216816  0.08386574  0.81826022     0.27400
C1630       C  0.04262544  0.11636443  0.81706008    -0.25100
N1631       N  0.06841537  0.18835289  0.79278670    -0.82500
H1632       H  0.10325734  0.12253112  0.79726226     0.13300
C1633       C  0.10464483  0.05144395  0.81205033     0.02600
N1634       N  0.05973161  0.04812432  0.82670270    -0.81100
H1635       H  0.02566827  0.11416181  0.82260344     0.18100
C1636       C  0.11974077  0.05114298  0.82203067    -0.25900
C1637       C  0.13922138  0.01854844  0.82352967     0.36100
C1638       C  0.14363011  0.98562520  0.81485373    -0.19900
C1639       C  0.12786048  0.98483030  0.80505157    -0.25200
C1640       C  0.10834968  0.01761336  0.80355496     0.27500
H1641       H  0.11638565  0.07671071  0.82862446     0.13200
N1642       N  0.15475071  0.01893060  0.83377334    -0.82500
H1643       H  0.13148649  0.95982588  0.79835084     0.18100
N1644       N  0.09246195  0.01705696  0.79342949    -0.81100
H1645       H  0.14910627  0.04541712  0.83927201     0.33700
H1646       H  0.15104303  0.98835879  0.83816871     0.38200
H1647       H  0.09782225  0.99022630  0.78797731     0.33700
H1648       H  0.07336724  0.01033413  0.79605234     0.30400
H1649       H  0.04252338  0.05155588  0.83142408     0.33700
H1650       H  0.05832374  0.01702324  0.82228715     0.30400
H1651       H  0.05381907  0.18210021  0.78675561     0.38300
H1652       H  0.08606695  0.18580455  0.78836075     0.33700
C1653       C  0.21753436  0.94651938  0.78095180    -0.20000
C1654       C  0.24139869  0.96064339  0.77605575     0.36200
C1655       C  0.24385719  0.96308873  0.76396281    -0.26000
C1656       C  0.22293306  0.95165328  0.75674098     0.02600
C1657       C  0.19879393  0.93975331  0.76170925     0.27400
C1658       C  0.19644825  0.93689234  0.77371547    -0.25100
N1659       N  0.26323530  0.97060922  0.78330556    -0.82500
H1660       H  0.26235385  0.97257827  0.76013858     0.13300
C1661       C  0.22623574  0.95215946  0.74398876     0.02600
N1662       N  0.17676032  0.93039231  0.75451673    -0.81100
H1663       H  0.17804747  0.92636798  0.77747664     0.18100
C1664       C  0.22024432  0.91270572  0.73755433    -0.25900
C1665       C  0.22073496  0.91298810  0.72541016     0.36100
C1666       C  0.22816898  0.95341541  0.71954571    -0.19900
C1667       C  0.23510846  0.99228081  0.72611326    -0.25200
C1668       C  0.23391301  0.99225758  0.73818740     0.27500
H1669       H  0.21453600  0.88176650  0.74206019     0.13200
N1670       N  0.21374813  0.87241204  0.71912375    -0.82500
H1671       H  0.24073233  0.02371368  0.72182059     0.18100
N1672       N  0.23976711  0.03322912  0.74456224    -0.81100
H1673       H  0.21056664  0.84504087  0.72475494     0.33700
H1674       H  0.19591924  0.87849880  0.71519497     0.38200
H1675       H  0.24523697  0.05977548  0.73901137     0.33700
H1676       H  0.22270442  0.04358860  0.74868124     0.30400
H1677       H  0.16049474  0.92179540  0.75950878     0.33700
H1678       H  0.17226778  0.96062524  0.75019668     0.30400
H1679       H  0.26842937  0.94025358  0.78740410     0.38300
H1680       H  0.27925863  0.98080197  0.77834211     0.33700
C1681       C  0.21980652  0.25188857  0.40073030    -0.20000
C1682       C  0.24237500  0.24840680  0.39381754     0.36200
C1683       C  0.24273488  0.26793744  0.38268924    -0.26000
C1684       C  0.22102125  0.29075431  0.37829267     0.02600
C1685       C  0.19839659  0.29366559  0.38516637     0.27400
C1686       C  0.19805756  0.27427750  0.39624941    -0.25100
N1687       N  0.26522780  0.22714245  0.39829106    -0.82500
H1688       H  0.26004964  0.26537173  0.37740039     0.13300
C1689       C  0.22186389  0.31054122  0.36640510     0.02600
N1690       N  0.17598426  0.31716288  0.38095072    -0.81100
H1691       H  0.18077218  0.27742041  0.40154251     0.18100
C1692       C  0.20348280  0.29587990  0.35832673    -0.25900
C1693       C  0.20326467  0.31343123  0.34705734     0.36100
C1694       C  0.22237590  0.34584531  0.34356689    -0.19900
C1695       C  0.24051506  0.36124955  0.35173136    -0.25200
C1696       C  0.24039187  0.34406212  0.36311086     0.27500
H1697       H  0.18914925  0.27042254  0.36084846     0.13200
N1698       N  0.18347204  0.29859939  0.33917795    -0.82500
H1699       H  0.25512335  0.38614632  0.34917740     0.18100
N1700       N  0.25894423  0.36060089  0.37134484    -0.81100
H1701       H  0.17113311  0.27446819  0.34303786     0.33700
H1702       H  0.17206002  0.32697626  0.33728139     0.38200
H1703       H  0.27126363  0.38502637  0.36758698     0.33700
H1704       H  0.24866853  0.37734011  0.37786744     0.30400
H1705       H  0.16092447  0.31612812  0.38701731     0.33700
H1706       H  0.18111215  0.35158567  0.37990600     0.30400
H1707       H  0.26116194  0.19225262  0.39918922     0.38300
H1708       H  0.28054531  0.22972189  0.39237797     0.33700
C1709       C  0.22849946  0.52154037  0.14893920    -0.20000
C1710       C  0.21315895  0.50320886  0.13994180     0.36200
C1711       C  0.21417968  0.52363447  0.12893535    -0.26000
C1712       C  0.22978997  0.56236343  0.12677328     0.02600
C1713       C  0.24475195  0.58101054  0.13573460     0.27400
C1714       C  0.24388162  0.56065355  0.14666366    -0.25100
N1715       N  0.19651286  0.46433425  0.14196235    -0.82500
H1716       H  0.20273945  0.50936724  0.12198551     0.13300
C1717       C  0.23191636  0.58134892  0.11492318     0.02600
N1718       N  0.26124087  0.62007562  0.13362572    -0.81100
H1719       H  0.25574673  0.57528920  0.15341523     0.18100
C1720       C  0.22444438  0.62661324  0.11268563    -0.25900
C1721       C  0.22818451  0.64650371  0.10171676     0.36100
C1722       C  0.23943414  0.62031047  0.09278232    -0.19900
C1723       C  0.24659841  0.57482541  0.09512056    -0.25200
C1724       C  0.24316989  0.55532432  0.10604909     0.27500
H1725       H  0.21603656  0.64665696  0.11959239     0.13200
N1726       N  0.22097412  0.69315853  0.09972473    -0.82500
H1727       H  0.25504872  0.55403175  0.08837218     0.18100
N1728       N  0.25151648  0.50935079  0.10823626    -0.81100
H1729       H  0.21267461  0.70729622  0.10714317     0.33700
H1730       H  0.23800606  0.71176681  0.09809353     0.38200
H1731       H  0.25927289  0.49465234  0.10077423     0.33700
H1732       H  0.26660053  0.51107312  0.11420162     0.30400
H1733       H  0.27086932  0.62992601  0.14114034     0.33700
H1734       H  0.27556827  0.61020018  0.12773987     0.30400
H1735       H  0.18198562  0.47455443  0.14771289     0.38300
H1736       H  0.18710352  0.45460548  0.13438329     0.33700
C1737       C  0.22956078  0.43464859  0.21483665    -0.20000
C1738       C  0.25303364  0.42711240  0.22066828     0.36200
C1739       C  0.25287784  0.42325164  0.23274318    -0.26000
C1740       C  0.22975908  0.42758923  0.23910085     0.02600
C1741       C  0.20621447  0.43460358  0.23323455     0.27400
C1742       C  0.20634844  0.43796391  0.22113115    -0.25100
N1743       N  0.27698111  0.42451877  0.21429183    -0.82500
H1744       H  0.27090976  0.41763518  0.23725599     0.13300
C1745       C  0.23046961  0.42336703  0.25187204     0.02600
N1746       N  0.18235701  0.43873259  0.23960672    -0.81100
H1747       H  0.18846162  0.44488175  0.21661824     0.18100
C1748       C  0.22394273  0.46079875  0.25890901    -0.25900
C1749       C  0.22417968  0.45728941  0.27104636     0.36100
C1750       C  0.23081046  0.41528882  0.27618870    -0.19900
C1751       C  0.23768195  0.37827890  0.26907895    -0.25200
C1752       C  0.23754745  0.38181866  0.25703095     0.27500
H1753       H  0.21856125  0.49274290  0.25490008     0.13200
N1754       N  0.21658753  0.49539244  0.27808271    -0.82500
H1755       H  0.24281760  0.34596280  0.27297238     0.18100
N1756       N  0.24406788  0.34304958  0.24998896    -0.81100
H1757       H  0.21108827  0.52290538  0.27293370     0.33700
H1758       H  0.23295868  0.50632544  0.28262305     0.38200
H1759       H  0.24894946  0.31507001  0.25510739     0.33700
H1760       H  0.22743896  0.33352677  0.24543191     0.30400
H1761       H  0.16685063  0.44427611  0.23403295     0.33700
H1762       H  0.17873728  0.40740697  0.24366274     0.30400
H1763       H  0.27585029  0.39582532  0.20893414     0.38300
H1764       H  0.29255152  0.41915273  0.21984512     0.33700
C1765       C  0.50335143  0.27576883  0.34265812    -0.20000
C1766       C  0.48470263  0.26121501  0.35091967     0.36200
C1767       C  0.48185600  0.28595981  0.36129621    -0.26000
C1768       C  0.49729791  0.32462771  0.36363538     0.02600
C1769       C  0.51604945  0.33879227  0.35549687     0.27400
C1770       C  0.51899479  0.31416408  0.34519955    -0.25100
N1771       N  0.46819065  0.22242730  0.34866099    -0.82500
H1772       H  0.46764749  0.27489944  0.36764106     0.13300
C1773       C  0.49470640  0.34899219  0.37484366     0.02600
N1774       N  0.53177053  0.37872431  0.35765888    -0.81100
H1775       H  0.53330920  0.32586877  0.33897865     0.18100
C1776       C  0.51617208  0.35070787  0.38218093    -0.25900
C1777       C  0.51496426  0.37324640  0.39284357     0.36100
C1778       C  0.49162192  0.39431566  0.39635713    -0.19900
C1779       C  0.47025179  0.39360227  0.38889764    -0.25200
C1780       C  0.47155942  0.37105176  0.37815971     0.27500
H1781       H  0.53396642  0.33401029  0.37958151     0.13200
N1782       N  0.53738438  0.37467005  0.40015206    -0.82500
H1783       H  0.45226278  0.40934030  0.39161183     0.18100
N1784       N  0.44950531  0.37022689  0.37064908    -0.81100
H1785       H  0.55288508  0.35732228  0.39634977     0.33700
H1786       H  0.54319464  0.40888908  0.40091475     0.38200
H1787       H  0.43397516  0.38773009  0.37437969     0.33700
H1788       H  0.45464829  0.38810608  0.36317437     0.30400
H1789       H  0.54471882  0.38459214  0.35084283     0.33700
H1790       H  0.51942148  0.40687275  0.35798190     0.30400
H1791       H  0.47987333  0.19338343  0.34868763     0.38300
H1792       H  0.45468890  0.21792982  0.35532711     0.33700
C1793       C  0.43326634  0.28585184  0.30784233    -0.20000
C1794       C  0.42326504  0.30369619  0.29755715     0.36200
C1795       C  0.39670965  0.31403250  0.29698659    -0.26000
C1796       C  0.38021930  0.30663008  0.30650052     0.02600
C1797       C  0.39054024  0.29020691  0.31689672     0.27400
C1798       C  0.41692506  0.27947262  0.31740788    -0.25100
N1799       N  0.43981991  0.30948817  0.28765120    -0.82500
H1800       H  0.38867815  0.32683553  0.28903075     0.13300
C1801       C  0.35224798  0.31705769  0.30561766     0.02600
N1802       N  0.37414638  0.28436669  0.32685989    -0.81100
H1803       H  0.42478477  0.26535323  0.32526426     0.18100
C1804       C  0.33368039  0.28267500  0.30789647    -0.25900
C1805       C  0.30698909  0.29253037  0.30819206     0.36100
C1806       C  0.29891879  0.33780568  0.30622582    -0.19900
C1807       C  0.31756416  0.37138180  0.30331168    -0.25200
C1808       C  0.34408337  0.36164657  0.30309682     0.27500
H1809       H  0.34013676  0.24825476  0.30968127     0.13200
N1810       N  0.28837452  0.25734362  0.31098227    -0.82500
H1811       H  0.31147883  0.40603059  0.30154048     0.18100
N1812       N  0.36279964  0.39723874  0.30073120    -0.81100
H1813       H  0.29775267  0.22664550  0.31280124     0.33700
H1814       H  0.27730861  0.25126059  0.30361865     0.38200
H1815       H  0.35355017  0.42811315  0.29897471     0.33700
H1816       H  0.37362801  0.40250324  0.30820627     0.30400
H1817       H  0.38475462  0.27163884  0.33377934     0.33700
H1818       H  0.36764695  0.31672218  0.32932722     0.30400
H1819       H  0.44592118  0.27706328  0.28503740     0.38300
H1820       H  0.42939343  0.32310486  0.28078414     0.33700
C1821       C  0.46734838  0.13543506  0.14800193    -0.20000
C1822       C  0.44743956  0.10753212  0.14329647     0.36200
C1823       C  0.45173488  0.08453407  0.13283423    -0.26000
C1824       C  0.47524600  0.08937035  0.12684967     0.02600
C1825       C  0.49472858  0.11860334  0.13124638     0.27400
C1826       C  0.49057861  0.14143149  0.14177408    -0.25100
N1827       N  0.42293001  0.10256225  0.14916830    -0.82500
H1828       H  0.43654901  0.06312385  0.12923050     0.13300
C1829       C  0.47819572  0.06676032  0.11547602     0.02600
N1830       N  0.51878726  0.12434134  0.12507290    -0.81100
H1831       H  0.50598684  0.16234877  0.14536484     0.18100
C1832       C  0.47868196  0.09424296  0.10567182    -0.25900
C1833       C  0.47970198  0.07507441  0.09462073     0.36100
C1834       C  0.47982024  0.02673948  0.09326537    -0.19900
C1835       C  0.48021111  0.99913266  0.10316278    -0.25200
C1836       C  0.47935921  0.01876753  0.11428200     0.27500
H1837       H  0.47791342  0.13106880  0.10666770     0.13200
N1838       N  0.48064153  0.10482101  0.08476935    -0.82500
H1839       H  0.48053059  0.96228442  0.10222782     0.18100
N1840       N  0.47942831  0.99032112  0.12435613    -0.81100
H1841       H  0.47979360  0.13914362  0.08726539     0.33700
H1842       H  0.49867377  0.10040097  0.08077243     0.38200
H1843       H  0.48030223  0.95581808  0.12202405     0.33700
H1844       H  0.49643291  0.99766751  0.12888407     0.30400
H1845       H  0.53108767  0.14698555  0.12943409     0.33700
H1846       H  0.52805812  0.09267812  0.12494272     0.30400
H1847       H  0.41414998  0.13465781  0.14930075     0.38300
H1848       H  0.41051961  0.08073669  0.14460697     0.33700
C1849       C  0.29786002  0.40964296  0.17704953    -0.20000
C1850       C  0.30041707  0.37431173  0.16878558     0.36200
C1851       C  0.32182957  0.34494242  0.16924250    -0.26000
C1852       C  0.34093286  0.35047108  0.17766047     0.02600
C1853       C  0.33915418  0.38711128  0.18554219     0.27400
C1854       C  0.31766645  0.41653638  0.18512374    -0.25100
N1855       N  0.28110236  0.36815457  0.16002091    -0.82500
H1856       H  0.32360449  0.31738693  0.16304755     0.13300
C1857       C  0.36283991  0.31780432  0.17803381     0.02600
N1858       N  0.35880597  0.39342104  0.19413718    -0.81100
H1859       H  0.31570001  0.44337180  0.19150226     0.18100
C1860       C  0.38773053  0.33318700  0.17506923    -0.25900
C1861       C  0.40905212  0.30351779  0.17511863     0.36100
C1862       C  0.40556665  0.25717864  0.17857485    -0.19900
C1863       C  0.38035093  0.24184804  0.18140674    -0.25200
C1864       C  0.35898510  0.27163103  0.18113117     0.27500
H1865       H  0.39043134  0.36855163  0.17251737     0.13200
N1866       N  0.43410821  0.32055324  0.17157360    -0.82500
H1867       H  0.37728161  0.20663875  0.18399033     0.18100
N1868       N  0.33340809  0.25534193  0.18408627    -0.81100
H1869       H  0.43887380  0.30434963  0.16382496     0.33700
H1870       H  0.43340697  0.35553929  0.16976480     0.38200
H1871       H  0.33377854  0.22054758  0.18611691     0.33700
H1872       H  0.32752637  0.27248990  0.19155201     0.30400
H1873       H  0.35466482  0.42185933  0.19926834     0.33700
H1874       H  0.35816932  0.36492540  0.19956388     0.30400
H1875       H  0.28143112  0.39738300  0.15484885     0.38300
H1876       H  0.28579419  0.34062468  0.15466660     0.33700
C1877       C  0.47522413  0.18841213  0.21561507    -0.20000
C1878       C  0.47268310  0.14872506  0.22257168     0.36200
C1879       C  0.47740362  0.15161769  0.23442055    -0.26000
C1880       C  0.48459837  0.19296901  0.23960707     0.02600
C1881       C  0.48767269  0.23247045  0.23269554     0.27400
C1882       C  0.48316821  0.22966371  0.22075262    -0.25100
N1883       N  0.46583052  0.10521136  0.21759521    -0.82500
H1884       H  0.47581498  0.12108186  0.23965984     0.13300
C1885       C  0.48918672  0.19377355  0.25225864     0.02600
N1886       N  0.49506898  0.27532932  0.23784274    -0.81100
H1887       H  0.48545860  0.25995581  0.21547400     0.18100
C1888       C  0.51293794  0.21033922  0.25642830    -0.25900
C1889       C  0.51779815  0.21269911  0.26829418     0.36100
C1890       C  0.49859531  0.19756736  0.27620232    -0.19900
C1891       C  0.47538277  0.17872769  0.27204039    -0.25200
C1892       C  0.47031480  0.17720399  0.26015139     0.27500
H1893       H  0.52771843  0.22172847  0.25038307     0.13200
N1894       N  0.54209951  0.23083113  0.27235858    -0.82500
H1895       H  0.46055114  0.16763117  0.27809622     0.18100
N1896       N  0.44575634  0.16026117  0.25608148    -0.81100
H1897       H  0.55392013  0.24103791  0.26546621     0.33700
H1898       H  0.55175323  0.20427975  0.27649451     0.38200
H1899       H  0.43408932  0.14934707  0.26296111     0.33700
H1900       H  0.43615100  0.18753786  0.25222377     0.30400
H1901       H  0.49662758  0.30090513  0.23159059     0.33700
H1902       H  0.48013096  0.28500922  0.24344229     0.30400
H1903       H  0.48110264  0.09534670  0.21219933     0.38300
H1904       H  0.46414816  0.08000349  0.22393505     0.33700
C1905       C  0.99993819  0.73422069  0.33873054    -0.20000
C1906       C  0.02072848  0.76388023  0.34172661     0.36200
C1907       C  0.02040657  0.78642299  0.35242110    -0.26000
C1908       C  0.99992979  0.77997693  0.36024409     0.02600
C1909       C  0.97948914  0.74966081  0.35744057     0.27400
C1910       C  0.97972244  0.72698785  0.34672475    -0.25100
N1911       N  0.04210860  0.77114565  0.33390883    -0.82500
H1912       H  0.03618714  0.80940407  0.35467809     0.13300
C1913       C  0.00067435  0.80431924  0.37148461     0.02600
N1914       N  0.95853703  0.74227696  0.36546468    -0.81100
H1915       H  0.96366027  0.70462967  0.34447867     0.18100
C1916       C  0.98248138  0.83841805  0.37394281    -0.25900
C1917       C  0.98263150  0.86187392  0.38456767     0.36100
C1918       C  0.00117795  0.85023450  0.39302761    -0.19900
C1919       C  0.01980264  0.81686601  0.39031052    -0.25200
C1920       C  0.01971929  0.79388183  0.37967845     0.27500
H1921       H  0.96810392  0.84671273  0.36752344     0.13200
N1922       N  0.96352865  0.89628492  0.38685576    -0.82500
H1923       H  0.03419958  0.80769782  0.39663739     0.18100
N1924       N  0.03860611  0.75922831  0.37723820    -0.81100
H1925       H  0.95062181  0.89888179  0.37998083     0.33700
H1926       H  0.97328687  0.92771142  0.38732012     0.38200
H1927       H  0.05138381  0.75567599  0.38413207     0.33700
H1928       H  0.02869203  0.72806073  0.37644286     0.30400
H1929       H  0.94494227  0.71925677  0.36207779     0.33700
H1930       H  0.96624980  0.72680084  0.37277820     0.30400
H1931       H  0.05175449  0.74002643  0.33300390     0.38300
H1932       H  0.05551709  0.79436833  0.33735202     0.33700
C1933       C  0.15642273  0.44414070  0.31208475    -0.20000
C1934       C  0.15162817  0.47801449  0.32051346     0.36200
C1935       C  0.13024769  0.50690659  0.31932082    -0.26000
C1936       C  0.11362961  0.50265522  0.30990352     0.02600
C1937       C  0.11761275  0.46765325  0.30174490     0.27400
C1938       C  0.13898952  0.43839538  0.30295344    -0.25100
N1939       N  0.16887293  0.48354205  0.33011559    -0.82500
H1940       H  0.12676394  0.53350925  0.32563611     0.13300
C1941       C  0.09214480  0.53545602  0.30882307     0.02600
N1942       N  0.10052187  0.46314433  0.29207420    -0.81100
H1943       H  0.14286598  0.41281153  0.29642426     0.18100
C1944       C  0.09608614  0.57625272  0.30271052    -0.25900
C1945       C  0.07667872  0.60987437  0.30227294     0.36100
C1946       C  0.05269507  0.60200162  0.30799810    -0.19900
C1947       C  0.04904666  0.56072521  0.31407816    -0.25200
C1948       C  0.06851271  0.52759625  0.31457895     0.27500
H1949       H  0.11455881  0.58212499  0.29843178     0.13200
N1950       N  0.08122208  0.65132760  0.29591357    -0.82500
H1951       H  0.03089833  0.55418214  0.31855474     0.18100
N1952       N  0.06461034  0.48631368  0.32109871    -0.81100
H1953       H  0.09913660  0.65019686  0.29165186     0.33700
H1954       H  0.08266286  0.67799996  0.30188098     0.38200
H1955       H  0.04627636  0.48603049  0.32500390     0.33700
H1956       H  0.06484288  0.45886322  0.31533143     0.30400
H1957       H  0.10640660  0.43622846  0.28675953     0.33700
H1958       H  0.08213752  0.45424669  0.29523656     0.30400
H1959       H  0.16776655  0.45362164  0.33502007     0.38300
H1960       H  0.16276098  0.51021423  0.33545535     0.33700
C1961       C  0.98180564  0.50852755  0.09121009    -0.20000
C1962       C  0.97480915  0.48280049  0.10102208     0.36200
C1963       C  0.97331481  0.50482183  0.11181169    -0.26000
C1964       C  0.97829398  0.55201252  0.11288711     0.02600
C1965       C  0.98556228  0.57746184  0.10309442     0.27400
C1966       C  0.98745552  0.55540901  0.09241032    -0.25100
N1967       N  0.96836874  0.43508266  0.09994665    -0.82500
H1968       H  0.96770235  0.48541869  0.11937981     0.13300
C1969       C  0.97487960  0.57502000  0.12419076     0.02600
N1970       N  0.99029402  0.62587497  0.10399057    -0.81100
H1971       H  0.99282779  0.57526731  0.08487972     0.18100
C1972       C  0.99599848  0.59792046  0.12924610    -0.25900
C1973       C  0.99337760  0.62061917  0.13988050     0.36100
C1974       C  0.96909991  0.62005385  0.14559040    -0.19900
C1975       C  0.94792532  0.59768213  0.14039384    -0.25200
C1976       C  0.95050435  0.57547548  0.12973574     0.27500
H1977       H  0.01468351  0.59755383  0.12492011     0.13200
N1978       N  0.01556026  0.64198804  0.14513813    -0.82500
H1979       H  0.92928373  0.59703419  0.14476280     0.18100
N1980       N  0.92849916  0.55329335  0.12452510    -0.81100
H1981       H  0.03221086  0.63676028  0.14014260     0.33700
H1982       H  0.01241520  0.67725845  0.14516475     0.38200
H1983       H  0.91203757  0.55640898  0.12976489     0.33700
H1984       H  0.92449198  0.57056098  0.11687332     0.30400
H1985       H  0.99556148  0.63953662  0.09599099     0.33700
H1986       H  0.97281141  0.64126880  0.10635543     0.30400
H1987       H  0.95164455  0.43248764  0.09493115     0.38300
H1988       H  0.96362621  0.42123805  0.10799265     0.33700
C1989       C  0.02572973  0.58312438  0.18548256    -0.20000
C1990       C  0.03685228  0.55296974  0.17743527     0.36200
C1991       C  0.06294847  0.54025882  0.17872747    -0.26000
C1992       C  0.07788104  0.55776413  0.18782053     0.02600
C1993       C  0.06637890  0.58609074  0.19615652     0.27400
C1994       C  0.04034932  0.59857318  0.19489331    -0.25100
N1995       N  0.02224794  0.53827066  0.16758098    -0.82500
H1996       H  0.07201561  0.51826513  0.17238648     0.13300
C1997       C  0.10583570  0.54753613  0.18827233     0.02600
N1998       N  0.08152026  0.60356529  0.20556474    -0.81100
H1999       H  0.03178044  0.62251359  0.20092224     0.18100
C2000       C  0.12385510  0.57883623  0.18362090    -0.25900
C2001       C  0.15049396  0.56852889  0.18314701     0.36100
C2002       C  0.15894501  0.52613701  0.18741994    -0.19900
C2003       C  0.14089343  0.49595406  0.19253228    -0.25200
C2004       C  0.11441673  0.50625379  0.19300348     0.27500
H2005       H  0.11696992  0.61069399  0.18005330     0.13200
N2006       N  0.16858118  0.59943689  0.17770978    -0.82500
H2007       H  0.14743277  0.46342208  0.19584882     0.18100
N2008       N  0.09607247  0.47440881  0.19792054    -0.81100
H2009       H  0.15895181  0.62808089  0.17454683     0.33700
H2010       H  0.18122628  0.61142200  0.18405662     0.38200
H2011       H  0.10552622  0.44522193  0.20086467     0.33700
H2012       H  0.08778082  0.48993122  0.20515544     0.30400
H2013       H  0.07024382  0.62464791  0.21083211     0.33700
H2014       H  0.08695472  0.57575662  0.21062624     0.30400
H2015       H  0.00673537  0.51819859  0.17057183     0.38300
H2016       H  0.03351232  0.51723007  0.16230252     0.33700
C2017       C  0.95954394  0.67945655  0.21302469    -0.20000
C2018       C  0.94013886  0.65804162  0.21988400     0.36200
C2019       C  0.94337426  0.65545944  0.23183487    -0.26000
C2020       C  0.96503631  0.67510250  0.23718673     0.02600
C2021       C  0.98337584  0.69966472  0.23047942     0.27400
C2022       C  0.98053536  0.70132626  0.21844497    -0.25100
N2023       N  0.91743417  0.63812040  0.21468409    -0.82500
H2024       H  0.92920984  0.63691582  0.23698769     0.13300
C2025       C  0.96865535  0.66798199  0.24974091     0.02600
N2026       N  0.00501747  0.72209828  0.23590433    -0.81100
H2027       H  0.99533845  0.71810301  0.21326419     0.18100
C2028       C  0.99195303  0.64907567  0.25366838    -0.25900
C2029       C  0.99654914  0.64353414  0.26548785     0.36100
C2030       C  0.97708851  0.65537500  0.27346790    -0.19900
C2031       C  0.95322245  0.67158622  0.26955761    -0.25200
C2032       C  0.94898409  0.67906627  0.25777566     0.27500
H2033       H  0.00683145  0.63965704  0.24749748     0.13200
N2034       N  0.02119748  0.62753450  0.26948327    -0.82500
H2035       H  0.93862078  0.68175487  0.27578395     0.18100
N2036       N  0.92532310  0.69980066  0.25399241    -0.81100
H2037       H  0.03354942  0.62070032  0.26252851     0.33700
H2038       H  0.01794405  0.59644027  0.27370408     0.38200
H2039       H  0.91298650  0.70610371  0.26098733     0.33700
H2040       H  0.93014182  0.73165882  0.25047024     0.30400
H2041       H  0.01678621  0.73837470  0.22976795     0.33700
H2042       H  0.99760443  0.74777152  0.24122876     0.30400
H2043       H  0.90695864  0.66467389  0.21095289     0.38300
H2044       H  0.90530022  0.62331245  0.22091594     0.33700
C2045       C  0.72916128  0.87496462  0.33676732    -0.20000
C2046       C  0.74888791  0.88507706  0.34482946     0.36200
C2047       C  0.74737527  0.86607934  0.35598289    -0.26000
C2048       C  0.72669979  0.83713285  0.35917691     0.02600
C2049       C  0.70700266  0.82728746  0.35120114     0.27400
C2050       C  0.70838494  0.84631422  0.34013368    -0.25100
N2051       N  0.77058943  0.91363607  0.34163962    -0.82500
H2052       H  0.76241091  0.87360889  0.36220011     0.13300
C2053       C  0.72529349  0.81778525  0.37096700     0.02600
N2054       N  0.68572058  0.79769640  0.35438637    -0.81100
H2055       H  0.69313540  0.83834863  0.33405466     0.18100
C2056       C  0.70623634  0.83388075  0.37854843    -0.25900
C2057       C  0.70317100  0.81516606  0.38960643     0.36100
C2058       C  0.71971547  0.77956000  0.39321752    -0.19900
C2059       C  0.73859925  0.76303187  0.38552131    -0.25200
C2060       C  0.74155541  0.78186202  0.37441821     0.27500
H2061       H  0.69355909  0.86103867  0.37576110     0.13200
N2062       N  0.68314631  0.83200250  0.39713443    -0.82500
H2063       H  0.75144156  0.73606074  0.38825958     0.18100
N2064       N  0.76095913  0.76473748  0.36663161    -0.81100
H2065       H  0.67293783  0.85844413  0.39321662     0.33700
H2066       H  0.66984003  0.80531759  0.39849088     0.38200
H2067       H  0.77144282  0.73852075  0.37050127     0.33700
H2068       H  0.75135110  0.75011714  0.35961139     0.30400
H2069       H  0.67270515  0.79408756  0.34756633     0.33700
H2070       H  0.69327471  0.76524099  0.35593566     0.30400
H2071       H  0.78118837  0.89624569  0.33532596     0.38300
H2072       H  0.78305079  0.91825559  0.34862070     0.33700
C2073       C  0.79836999  0.84403049  0.29881414    -0.20000
C2074       C  0.80257730  0.79837935  0.30213435     0.36200
C2075       C  0.82805801  0.78127220  0.30195521    -0.26000
C2076       C  0.84922770  0.80924567  0.29871927     0.02600
C2077       C  0.84475924  0.85396533  0.29480926     0.27400
C2078       C  0.81939136  0.87061268  0.29476842    -0.25100
N2079       N  0.78135567  0.77039038  0.30616720    -0.82500
H2080       H  0.83162579  0.74667203  0.30482899     0.13300
C2081       C  0.87609724  0.79292008  0.30037984     0.02600
N2082       N  0.86611248  0.88300896  0.29139311    -0.81100
H2083       H  0.81616163  0.90553337  0.29205301     0.18100
C2084       C  0.89336773  0.79128653  0.29098564    -0.25900
C2085       C  0.91903180  0.77640142  0.29239266     0.36100
C2086       C  0.92726805  0.76231379  0.30336321    -0.19900
C2087       C  0.91019189  0.76489110  0.31277347    -0.25200
C2088       C  0.88480897  0.78079009  0.31143744     0.27500
H2089       H  0.88664696  0.80099172  0.28252093     0.13200
N2090       N  0.93621946  0.77297196  0.28264590    -0.82500
H2091       H  0.91659400  0.75354067  0.32116251     0.18100
N2092       N  0.86777553  0.78448295  0.32124033    -0.81100
H2093       H  0.92681692  0.78293440  0.27511736     0.33700
H2094       H  0.95143907  0.79627806  0.28389456     0.38200
H2095       H  0.87713776  0.77392773  0.32872886     0.33700
H2096       H  0.86352940  0.81910553  0.32236200     0.30400
H2097       H  0.85945784  0.91487860  0.28868206     0.33700
H2098       H  0.87749896  0.88901923  0.29866855     0.30400
H2099       H  0.77453648  0.78469431  0.31385412     0.38300
H2100       H  0.78780543  0.73758178  0.30818497     0.33700
C2101       C  0.66921769  0.99374542  0.30704406    -0.20000
C2102       C  0.64518279  0.98661203  0.30146995     0.36200
C2103       C  0.62604862  0.02083581  0.30210333    -0.26000
C2104       C  0.63043753  0.06163852  0.30823164     0.02600
C2105       C  0.65418623  0.06840268  0.31389317     0.27400
C2106       C  0.67309424  0.03439091  0.31334610    -0.25100
N2107       N  0.64053716  0.94570188  0.29490692    -0.82500
H2108       H  0.60762862  0.01574609  0.29782036     0.13300
C2109       C  0.61008117  0.09717152  0.30888140     0.02600
N2110       N  0.65919664  0.11034936  0.32000087    -0.81100
H2111       H  0.69132694  0.04029586  0.31771863     0.18100
C2112       C  0.59986910  0.10914109  0.31968640    -0.25900
C2113       C  0.58087334  0.14283957  0.32080501     0.36100
C2114       C  0.57164347  0.16492362  0.31082659    -0.19900
C2115       C  0.58247169  0.15411785  0.30005943    -0.25200
C2116       C  0.60164995  0.12039950  0.29897652     0.27500
H2117       H  0.60657696  0.09175571  0.32733272     0.13200
N2118       N  0.57116609  0.15315345  0.33214773    -0.82500
H2119       H  0.57504262  0.17046806  0.29241592     0.18100
N2120       N  0.61231192  0.10916938  0.28787484    -0.81100
H2121       H  0.58682988  0.16497938  0.33702900     0.33700
H2122       H  0.55790800  0.17992707  0.33199593     0.38200
H2123       H  0.60384360  0.12907265  0.28146476     0.33700
H2124       H  0.63203177  0.11785157  0.28797261     0.30400
H2125       H  0.67759315  0.10997067  0.32374013     0.33700
H2126       H  0.65944071  0.13686003  0.31396873     0.30400
H2127       H  0.63942987  0.91846904  0.30071122     0.38300
H2128       H  0.62247272  0.94708079  0.29087711     0.33700
C2129       C  0.72494950  0.00331549  0.14094865    -0.20000
C2130       C  0.70811248  0.03968619  0.13843811     0.36200
C2131       C  0.70935406  0.06082385  0.12756704    -0.26000
C2132       C  0.72723809  0.04648478  0.11917033     0.02600
C2133       C  0.74318247  0.00850245  0.12150649     0.27400
C2134       C  0.74190056  0.98731394  0.13240108    -0.25100
N2135       N  0.69052420  0.05608648  0.14713942    -0.82500
H2136       H  0.69707087  0.08982924  0.12579661     0.13300
C2137       C  0.73012607  0.07317911  0.10827234     0.02600
N2138       N  0.76101132  0.99233861  0.11288570    -0.81100
H2139       H  0.75499140  0.95968902  0.13441374     0.18100
C2140       C  0.75436256  0.09273155  0.10546691    -0.25900
C2141       C  0.75819224  0.11698290  0.09511939     0.36100
C2142       C  0.73726773  0.12267023  0.08752285    -0.19900
C2143       C  0.71271120  0.10525034  0.09057708    -0.25200
C2144       C  0.70901940  0.07979211  0.10076774     0.27500
H2145       H  0.77044383  0.08852837  0.11132557     0.13200
N2146       N  0.78330948  0.13545534  0.09220138    -0.82500
H2147       H  0.69671117  0.10928133  0.08466904     0.18100
N2148       N  0.68420968  0.05923152  0.10331420    -0.81100
H2149       H  0.79666153  0.12836495  0.09868800     0.33700
H2150       H  0.78163189  0.17102908  0.09186518     0.38200
H2151       H  0.67082395  0.06700556  0.09689008     0.33700
H2152       H  0.68654724  0.02376742  0.10313306     0.30400
H2153       H  0.77145850  0.96446083  0.11597132     0.33700
H2154       H  0.75006094  0.98033753  0.10594814     0.30400
H2155       H  0.67739946  0.02964713  0.14901728     0.38300
H2156       H  0.67959781  0.08327283  0.14399236     0.33700
C2157       C  0.53038731  0.09472688  0.18461146    -0.20000
C2158       C  0.54816969  0.10661410  0.19332071     0.36200
C2159       C  0.57358840  0.08985791  0.19278885    -0.26000
C2160       C  0.58148410  0.06174939  0.18368007     0.02600
C2161       C  0.56341860  0.04824796  0.17521786     0.27400
C2162       C  0.53786616  0.06476260  0.17580152    -0.25100
N2163       N  0.54051829  0.13717890  0.20241033    -0.82500
H2164       H  0.58750891  0.09964021  0.19931894     0.13300
C2165       C  0.60892945  0.04757485  0.18293974     0.02600
N2166       N  0.57140830  0.01927037  0.16586348    -0.81100
H2167       H  0.52429231  0.05668215  0.16898969     0.18100
C2168       C  0.61514867  0.00225111  0.18537289    -0.25900
C2169       C  0.64070777  0.98692921  0.18433064     0.36100
C2170       C  0.66055863  0.01725142  0.18054145    -0.19900
C2171       C  0.65444845  0.06325541  0.17855378    -0.25200
C2172       C  0.62873215  0.07872006  0.17970462     0.27500
H2173       H  0.60002309  0.97855653  0.18808264     0.13200
N2174       N  0.64641784  0.94053216  0.18727112    -0.82500
H2175       H  0.66953913  0.08677107  0.17573028     0.18100
N2176       N  0.62251728  0.12563948  0.17742084    -0.81100
H2177       H  0.64086757  0.93518600  0.19583910     0.33700
H2178       H  0.63513719  0.91901892  0.18208610     0.38200
H2179       H  0.63925650  0.14415381  0.17519479     0.33700
H2180       H  0.61041565  0.12620257  0.17023544     0.30400
H2181       H  0.55583490  0.01262760  0.16036199     0.33700
H2182       H  0.58528259  0.03727069  0.16102991     0.30400
H2183       H  0.52591201  0.12083702  0.20718006     0.38300
H2184       H  0.55592894  0.14299595  0.20805770     0.33700
C2185       C  0.80112624  0.90698958  0.17058612    -0.20000
C2186       C  0.81787439  0.90644953  0.18014247     0.36200
C2187       C  0.83799376  0.87422473  0.18050783    -0.26000
C2188       C  0.84160614  0.84263095  0.17152691     0.02600
C2189       C  0.82547941  0.84438313  0.16179246     0.27400
C2190       C  0.80526926  0.87628816  0.16146764    -0.25100
N2191       N  0.81322529  0.93622713  0.18978074    -0.82500
H2192       H  0.85045532  0.87276468  0.18797579     0.13300
C2193       C  0.86243562  0.80800732  0.17240495     0.02600
N2194       N  0.82947790  0.81326987  0.15236949    -0.81100
H2195       H  0.79210699  0.87629117  0.15422527     0.18100
C2196       C  0.85611049  0.76114648  0.17247079    -0.25900
C2197       C  0.87552081  0.72755470  0.17326261     0.36100
C2198       C  0.90183511  0.74130329  0.17410882    -0.19900
C2199       C  0.90786857  0.78845300  0.17400539    -0.25200
C2200       C  0.88856882  0.82171049  0.17312180     0.27500
H2201       H  0.83591463  0.75082214  0.17191049     0.13200
N2202       N  0.86851416  0.67988853  0.17319135    -0.82500
H2203       H  0.92785697  0.79980656  0.17467685     0.18100
N2204       N  0.89541203  0.86948454  0.17288868    -0.81100
H2205       H  0.84836159  0.67581206  0.17282356     0.33700
H2206       H  0.87595190  0.66569735  0.16560511     0.38200
H2207       H  0.91548835  0.87397053  0.17358716     0.33700
H2208       H  0.89022733  0.88226180  0.16482924     0.30400
H2209       H  0.81583675  0.81878720  0.14590149     0.33700
H2210       H  0.84767161  0.82068420  0.14877078     0.30400
H2211       H  0.81662147  0.96975620  0.18701318     0.38300
H2212       H  0.82653759  0.93002460  0.19633860     0.33700
C2213       C  0.73794342  0.94121469  0.20820308    -0.20000
C2214       C  0.72069012  0.91244937  0.21437932     0.36200
C2215       C  0.72203163  0.91112996  0.22648890    -0.26000
C2216       C  0.73975205  0.93878088  0.23255970     0.02600
C2217       C  0.75757764  0.96621566  0.22637271     0.27400
C2218       C  0.75666546  0.96670565  0.21430500    -0.25100
N2219       N  0.70128169  0.88607903  0.20843730    -0.82500
H2220       H  0.70862678  0.88949272  0.23126255     0.13300
C2221       C  0.73870180  0.94022204  0.24537057     0.02600
N2222       N  0.77599427  0.99462647  0.23236800    -0.81100
H2223       H  0.77021873  0.98843897  0.20964012     0.18100
C2224       C  0.76112423  0.93094800  0.25176007    -0.25900
C2225       C  0.76065096  0.93170720  0.26386884     0.36100
C2226       C  0.73723586  0.94133984  0.26966031    -0.19900
C2227       C  0.71489421  0.95088553  0.26332881    -0.25200
C2228       C  0.71547147  0.95122246  0.25123400     0.27500
H2229       H  0.77890264  0.92220118  0.24727833     0.13200
N2230       N  0.78340747  0.92020963  0.27031293    -0.82500
H2231       H  0.69685651  0.95745527  0.26786125     0.18100
N2232       N  0.69255493  0.96248730  0.24487535    -0.81100
H2233       H  0.79883883  0.91265202  0.26476570     0.33700
H2234       H  0.78898532  0.94922062  0.27498094     0.38200
H2235       H  0.67710745  0.96941938  0.25047146     0.33700
H2236       H  0.69644771  0.99270781  0.24036512     0.30400
H2237       H  0.78782904  0.01251979  0.22654970     0.33700
H2238       H  0.76556178  0.01912666  0.23699393     0.30400
H2239       H  0.68829669  0.90905749  0.20476500     0.38300
H2240       H  0.69048708  0.86622277  0.21424644     0.33700
loop_ 
_geom_bond_atom_site_label_1 
_geom_bond_atom_site_label_2 
_geom_bond_distance 
_geom_bond_site_symmetry_2 
_ccdc_geom_bond_type 
O1           Ni9   1.939       .  S
O1           C11   1.287       .  A
O2           Ni9   1.939   1_565  S
O2           C12   1.286       .  A
O3           Ni9   1.905       .  S
O3           C13   1.277   1_545  A
O4           Ni9   1.895   1_565  S
O4           C14   1.277       .  A
O5          Ni10   1.942       .  S
O5           C14   1.287       .  A
O6          Ni10   1.941       .  S
O6           C13   1.286       .  A
O7          Ni10   1.895       .  S
O7           C12   1.275       .  A
O8          Ni10   1.895       .  S
O8           C11   1.276   1_565  A
Ni9         Ni10   2.387   1_545  S
C11        C2170   1.484       .  S
C12        C2185   1.475       .  S
C13        C2129   1.477   1_565  S
C14        C2213   1.487       .  S
O15         Ni23   1.943       .  S
O15          C25   1.287       .  A
O16         Ni23   1.942       .  S
O16          C26   1.287       .  A
O17         Ni23   1.900       .  S
O17          C27   1.276       .  A
O18         Ni23   1.904       .  S
O18          C28   1.279       .  A
O19         Ni24   1.937       .  S
O19          C28   1.286       .  A
O20         Ni24   1.933       .  S
O20          C27   1.285       .  A
O21         Ni24   1.893       .  S
O21          C26   1.277       .  A
O22         Ni24   1.884       .  S
O22          C25   1.275       .  A
Ni23        Ni24   2.386       .  S
C25        C2073   1.478       .  S
C26        C2101   1.490       .  S
C27        C2226   1.469       .  S
C28        C2045   1.490       .  S
O29         Ni37   1.940       .  S
O29          C39   1.286   1_655  A
O30         Ni37   1.940       .  S
O30          C40   1.287       .  A
O31         Ni37   1.896       .  S
O31          C41   1.276       .  A
O32         Ni37   1.893       .  S
O32          C42   1.276       .  A
O33         Ni38   1.935       .  S
O33          C42   1.286       .  A
O34         Ni38   1.936       .  S
O34          C41   1.286       .  A
O35         Ni38   1.896       .  S
O35          C40   1.277       .  A
O36         Ni38   1.887   1_455  S
O36          C39   1.274       .  A
Ni37        Ni38   2.386       .  S
C39        C1989   1.466       .  S
C40        C2198   1.493       .  S
C41        C1974   1.482       .  S
C42        C2017   1.483       .  S
O43         Ni51   1.934   1_655  S
O43          C53   1.285       .  A
O44         Ni51   1.932       .  S
O44          C54   1.285       .  A
O45         Ni51   1.894   1_655  S
O45          C55   1.275       .  A
O46         Ni51   1.905       .  S
O46          C56   1.278   1_455  A
O47         Ni52   1.934       .  S
O47          C56   1.286       .  A
O48         Ni52   1.935       .  S
O48          C55   1.285       .  A
O49         Ni52   1.904   1_455  S
O49          C54   1.279       .  A
O50         Ni52   1.892       .  S
O50          C53   1.275       .  A
Ni51        Ni52   2.387   1_455  S
C53        C2086   1.468       .  S
C54        C1946   1.491       .  S
C55        C2030   1.466       .  S
C56        C1905   1.489       .  S
O57         Ni65   1.937       .  S
O57          C67   1.286       .  A
O58         Ni65   1.940       .  S
O58          C68   1.287       .  A
O59         Ni65   1.906       .  S
O59          C69   1.278       .  A
O60         Ni65   1.893       .  S
O60          C70   1.275       .  A
O61         Ni66   1.939       .  S
O61          C70   1.285       .  A
O62         Ni66   1.940       .  S
O62          C69   1.287       .  A
O63         Ni66   1.897       .  S
O63          C68   1.276       .  A
O64         Ni66   1.898       .  S
O64          C67   1.277       .  A
Ni65        Ni66   2.384       .  S
C67        C1877   1.488       .  S
C68        C1821   1.486       .  S
C69        C1862   1.499       .  S
C70        C2157   1.468       .  S
O71         Ni79   1.934       .  S
O71          C81   1.285       .  A
O72         Ni79   1.934       .  S
O72          C82   1.284       .  A
O73         Ni79   1.894       .  S
O73          C83   1.275       .  A
O74         Ni79   1.905       .  S
O74          C84   1.279       .  A
O75         Ni80   1.937       .  S
O75          C84   1.286       .  A
O76         Ni80   1.941       .  S
O76          C83   1.287       .  A
O77         Ni80   1.899       .  S
O77          C82   1.276       .  A
O78         Ni80   1.887       .  S
O78          C81   1.274       .  A
Ni79        Ni80   2.389       .  S
C81        C1793   1.465       .  S
C82        C2114   1.470       .  S
C83        C1890   1.480       .  S
C84        C1765   1.494       .  S
O85         Ni93   1.940       .  S
O85          C95   1.286       .  A
O86         Ni93   1.940       .  S
O86          C96   1.287       .  A
O87         Ni93   1.903       .  S
O87          C97   1.278       .  A
O88         Ni93   1.901       .  S
O88          C98   1.276       .  A
O89         Ni94   1.941       .  S
O89          C98   1.286       .  A
O90         Ni94   1.942       .  S
O90          C97   1.287       .  A
O91         Ni94   1.898       .  S
O91          C96   1.276       .  A
O92         Ni94   1.889       .  S
O92          C95   1.275       .  A
Ni93        Ni94   2.387       .  S
C95        C2002   1.475       .  S
C96        C1849   1.484       .  S
C97        C1709   1.496       .  S
C98        C1737   1.474       .  S
O99        Ni107   1.937       .  S
O99         C109   1.286       .  A
O100       Ni107   1.939       .  S
O100        C110   1.286       .  A
O101       Ni107   1.899       .  S
O101        C111   1.277       .  A
O102       Ni107   1.907       .  S
O102        C112   1.278       .  A
O103       Ni108   1.948       .  S
O103        C112   1.288       .  A
O104       Ni108   1.948       .  S
O104        C111   1.288       .  A
O105       Ni108   1.890       .  S
O105        C110   1.275       .  A
O106       Ni108   1.888       .  S
O106        C109   1.276       .  A
Ni107      Ni108   2.385       .  S
C109       C1806   1.481       .  S
C110       C1933   1.476       .  S
C111       C1750   1.487       .  S
C112       C1694   1.497       .  S
O113       Ni121   1.931       .  S
O113        C123   1.285       .  A
O114       Ni121   1.931       .  S
O114        C124   1.284       .  A
O115       Ni121   1.894       .  S
O115        C125   1.276       .  A
O116       Ni121   1.903       .  S
O116        C126   1.279       .  A
O117       Ni122   1.936       .  S
O117        C126   1.286       .  A
O118       Ni122   1.942       .  S
O118        C125   1.287       .  A
O119       Ni122   1.897       .  S
O119        C124   1.276       .  A
O120       Ni122   1.890       .  S
O120        C123   1.275       .  A
Ni121      Ni122   2.387       .  S
C123       C1597   1.470       .  S
C124       C1638   1.473       .  S
C125       C1653   1.480       .  S
C126       C1569   1.495       .  S
O127       Ni135   1.942       .  S
O127        C137   1.287       .  A
O128       Ni135   1.944   1_565  S
O128        C138   1.287       .  A
O129       Ni135   1.893       .  S
O129        C139   1.277   1_545  A
O130       Ni135   1.894   1_565  S
O130        C140   1.276       .  A
O131       Ni136   1.946       .  S
O131        C140   1.288       .  A
O132       Ni136   1.949       .  S
O132        C139   1.288       .  A
O133       Ni136   1.891       .  S
O133        C138   1.276       .  A
O134       Ni136   1.881       .  S
O134        C137   1.273   1_565  A
Ni135      Ni136   2.382   1_545  S
C137       C1526   1.470       .  S
C138       C1554   1.489       .  S
C139       C1498   1.496   1_565  S
C140       C1666   1.496       .  S
O141       Ni149   1.943       .  S
O141        C151   1.287       .  A
O142       Ni149   1.943       .  S
O142        C152   1.287       .  A
O143       Ni149   1.900       .  S
O143        C153   1.277       .  A
O144       Ni149   1.905       .  S
O144        C154   1.278       .  A
O145       Ni150   1.944       .  S
O145        C154   1.287       .  A
O146       Ni150   1.944       .  S
O146        C153   1.287       .  A
O147       Ni150   1.896       .  S
O147        C152   1.276       .  A
O148       Ni150   1.881       .  S
O148        C151   1.275       .  A
Ni149      Ni150   2.383       .  S
C151       C1610   1.489       .  S
C152       C1442   1.483       .  S
C153       C1457   1.489       .  S
C154       C1414   1.490       .  S
O155       Ni163   1.939       .  S
O155        C165   1.286       .  A
O156       Ni163   1.943       .  S
O156        C166   1.287       .  A
O157       Ni163   1.904       .  S
O157        C167   1.279       .  A
O158       Ni163   1.906       .  S
O158        C168   1.278       .  A
O159       Ni164   1.937       .  S
O159        C168   1.286       .  A
O160       Ni164   1.941       .  S
O160        C167   1.287       .  A
O161       Ni164   1.895       .  S
O161        C166   1.277       .  A
O162       Ni164   1.889       .  S
O162        C165   1.274       .  A
Ni163      Ni164   2.384       .  S
C165       C1373   1.470       .  S
C166       C1541   1.493       .  S
C167       C1345   1.495       .  S
C168       C1470   1.489       .  S
O169       Ni177   1.943       .  S
O169        C179   1.287       .  A
O170       Ni177   1.941       .  S
O170        C180   1.287       .  A
O171       Ni177   1.897       .  S
O171        C181   1.277       .  A
O172       Ni177   1.890       .  S
O172        C182   1.275       .  A
O173       Ni178   1.946       .  S
O173        C182   1.288       .  A
O174       Ni178   1.945       .  S
O174        C181   1.287       .  A
O175       Ni178   1.902       .  S
O175        C180   1.278       .  A
O176       Ni178   1.889       .  S
O176        C179   1.276       .  A
Ni177      Ni178   2.382       .  S
C179       C1386   1.489       .  S
C180       C1302   1.491       .  S
C181       C1261   1.491       .  S
C182       C1317   1.488       .  S
O183       Ni191   1.946       .  S
O183        C193   1.287       .  A
O184       Ni191   1.946       .  S
O184        C194   1.287       .  A
O185       Ni191   1.895       .  S
O185        C195   1.275       .  A
O186       Ni191   1.892       .  S
O186        C196   1.276       .  A
O187       Ni192   1.946       .  S
O187        C196   1.287       .  A
O188       Ni192   1.944       .  S
O188        C195   1.289       .  A
O189       Ni192   1.893       .  S
O189        C194   1.275       .  A
O190       Ni192   1.887       .  S
O190        C193   1.274       .  A
Ni191      Ni192   2.386       .  S
C193       C1233   1.473       .  S
C194       C1429   1.480       .  S
C195       C1330   1.488       .  S
C196       C1218   1.489       .  S
O197       Ni205   1.938       .  S
O197        C207   1.285   1_655  A
O198       Ni205   1.944       .  S
O198        C208   1.288       .  A
O199       Ni205   1.904       .  S
O199        C209   1.278       .  A
O200       Ni205   1.899       .  S
O200        C210   1.277       .  A
O201       Ni206   1.948       .  S
O201        C210   1.288       .  A
O202       Ni206   1.949       .  S
O202        C209   1.288       .  A
O203       Ni206   1.899       .  S
O203        C208   1.277       .  A
O204       Ni206   1.888   1_455  S
O204        C207   1.275       .  A
Ni205      Ni206   2.384       .  S
C207       C1513   1.471       .  S
C208       C1289   1.498       .  S
C209       C1149   1.496       .  S
C210       C1177   1.487       .  S
O211       Ni219   1.943       .  S
O211        C221   1.287       .  A
O212       Ni219   1.941   1_455  S
O212        C222   1.286       .  A
O213       Ni219   1.902       .  S
O213        C223   1.278       .  A
O214       Ni219   1.905       .  S
O214        C224   1.278       .  A
O215       Ni220   1.945       .  S
O215        C224   1.288       .  A
O216       Ni220   1.948       .  S
O216        C223   1.289       .  A
O217       Ni220   1.889       .  S
O217        C222   1.275   1_655  A
O218       Ni220   1.885       .  S
O218        C221   1.272       .  A
Ni219      Ni220   2.387       .  S
C221       C1246   1.465       .  S
C222       C1625   1.480       .  S
C223       C1190   1.497       .  S
C224       C1121   1.489       .  S
O225       Ni233   1.937       .  S
O225        C235   1.285       .  A
O226       Ni233   1.938       .  S
O226        C236   1.287       .  A
O227       Ni233   1.900       .  S
O227        C237   1.278       .  A
O228       Ni233   1.898       .  S
O228        C238   1.276       .  A
O229       Ni234   1.934       .  S
O229        C238   1.285       .  A
O230       Ni234   1.940       .  S
O230        C237   1.286       .  A
O231       Ni234   1.894       .  S
O231        C236   1.276       .  A
O232       Ni234   1.882       .  S
O232        C235   1.274       .  A
Ni233      Ni234   2.388       .  S
C235       C1037   1.464       .  S
C236       C1065   1.489       .  S
C237       C1274   1.486       .  S
C238       C1106   1.471       .  S
O239       Ni247   1.936       .  S
O239        C249   1.285       .  A
O240       Ni247   1.937       .  S
O240        C250   1.285       .  A
O241       Ni247   1.893       .  S
O241        C251   1.276       .  A
O242       Ni247   1.902       .  S
O242        C252   1.277       .  A
O243       Ni248   1.938       .  S
O243        C252   1.287       .  A
O244       Ni248   1.940       .  S
O244        C251   1.286       .  A
O245       Ni248   1.895       .  S
O245        C250   1.275       .  A
O246       Ni248   1.888       .  S
O246        C249   1.276       .  A
Ni247      Ni248   2.387       .  S
C249        C981   1.480       .  S
C250       C1009   1.469       .  S
C251       C1093   1.481       .  S
C252       C2058   1.487       .  S
O253       Ni261   1.934   1_655  S
O253        C263   1.284       .  A
O254       Ni261   1.934       .  S
O254        C264   1.285       .  A
O255       Ni261   1.907       .  S
O255        C265   1.277   1_455  A
O256       Ni261   1.914       .  S
O256        C266   1.281   1_455  A
O257       Ni262   1.930       .  S
O257        C266   1.284       .  A
O258       Ni262   1.933       .  S
O258        C265   1.284       .  A
O259       Ni262   1.902   1_455  S
O259        C264   1.278       .  A
O260       Ni262   1.888       .  S
O260        C263   1.275       .  A
Ni261      Ni262   2.387   1_455  S
C263        C994   1.465       .  S
C264        C925   1.488       .  S
C265        C953   1.473       .  S
C266       C1918   1.496   1_655  S
O267       Ni275   1.939   1_545  S
O267        C277   1.287   1_645  A
O268       Ni275   1.940       .  S
O268        C278   1.287       .  A
O269       Ni275   1.899       .  S
O269        C279   1.277       .  A
O270       Ni275   1.898       .  S
O270        C280   1.277       .  A
O271       Ni276   1.945       .  S
O271        C280   1.288       .  A
O272       Ni276   1.949       .  S
O272        C279   1.289       .  A
O273       Ni276   1.895       .  S
O273        C278   1.276       .  A
O274       Ni276   1.886   1_455  S
O274        C277   1.274       .  A
Ni275      Ni276   2.383       .  S
C277        C897   1.477   1_565  S
C278       C1078   1.486       .  S
C279       C1162   1.495       .  S
C280        C966   1.497       .  S
O281       Ni289   1.937       .  S
O281        C291   1.286       .  A
O282       Ni289   1.939       .  S
O282        C292   1.286       .  A
O283       Ni289   1.901       .  S
O283        C293   1.276       .  A
O284       Ni289   1.907       .  S
O284        C294   1.278       .  A
O285       Ni290   1.945       .  S
O285        C294   1.288       .  A
O286       Ni290   1.944       .  S
O286        C293   1.287       .  A
O287       Ni290   1.897       .  S
O287        C292   1.276       .  A
O288       Ni290   1.889       .  S
O288        C291   1.275       .  A
Ni289      Ni290   2.388       .  S
C291        C841   1.477       .  S
C292        C938   1.473       .  S
C293        C882   1.479       .  S
C294       C1681   1.491       .  S
O295       Ni303   1.937       .  S
O295        C305   1.285       .  A
O296       Ni303   1.936       .  S
O296        C306   1.286       .  A
O297       Ni303   1.901       .  S
O297        C307   1.278       .  A
O298       Ni303   1.900       .  S
O298        C308   1.277       .  A
O299       Ni304   1.941       .  S
O299        C308   1.287       .  A
O300       Ni304   1.943       .  S
O300        C307   1.287       .  A
O301       Ni304   1.903       .  S
O301        C306   1.278       .  A
O302       Ni304   1.892       .  S
O302        C305   1.275       .  A
Ni303      Ni304   2.386       .  S
C305        C910   1.472       .  S
C306        C813   1.488       .  S
C307       C1485   1.496       .  S
C308        C869   1.482       .  S
O309       Ni317   1.944       .  S
O309        C319   1.287       .  A
O310       Ni317   1.944       .  S
O310        C320   1.287       .  A
O311       Ni317   1.897       .  S
O311        C321   1.277       .  A
O312       Ni317   1.890       .  S
O312        C322   1.276       .  A
O313       Ni318   1.947       .  S
O313        C322   1.288       .  A
O314       Ni318   1.946       .  S
O314        C321   1.288       .  A
O315       Ni318   1.891       .  S
O315        C320   1.275       .  A
O316       Ni318   1.880       .  S
O316        C319   1.274       .  A
Ni317      Ni318   2.385       .  S
C319       C1050   1.474       .  S
C320        C826   1.479       .  S
C321       C1358   1.493       .  S
C322        C785   1.495       .  S
O323       Ni331   1.935       .  S
O323        C333   1.285       .  A
O324       Ni331   1.934       .  S
O324        C334   1.285       .  A
O325       Ni331   1.895       .  S
O325        C335   1.276       .  A
O326       Ni331   1.902       .  S
O326        C336   1.278       .  A
O327       Ni332   1.937       .  S
O327        C336   1.286       .  A
O328       Ni332   1.939       .  S
O328        C335   1.287       .  A
O329       Ni332   1.901       .  S
O329        C334   1.278       .  A
O330       Ni332   1.887       .  S
O330        C333   1.274       .  A
Ni331      Ni332   2.387       .  S
C333        C854   1.462       .  S
C334       C1022   1.494       .  S
C335        C798   1.481       .  S
C336       C1778   1.484       .  S
O337       Ni345   1.932       .  S
O337        C347   1.283       .  A
O338       Ni345   1.926       .  S
O338        C348   1.284       .  A
O339       Ni345   1.896       .  S
O339        C349   1.276       .  A
O340       Ni345   1.905       .  S
O340        C350   1.278       .  A
O341       Ni346   1.929       .  S
O341        C350   1.284       .  A
O342       Ni346   1.935       .  S
O342        C349   1.285       .  A
O343       Ni346   1.901       .  S
O343        C348   1.277       .  A
O344       Ni346   1.888       .  S
O344        C347   1.275       .  A
Ni345      Ni346   2.392       .  S
C347        C701   1.462       .  S
C348        C742   1.473       .  S
C349        C757   1.473       .  S
C350       C1582   1.478       .  S
O351       Ni359   1.938       .  S
O351        C361   1.285       .  A
O352       Ni359   1.936       .  S
O352        C362   1.286       .  A
O353       Ni359   1.894       .  S
O353        C363   1.277       .  A
O354       Ni359   1.892       .  S
O354        C364   1.276       .  A
O355       Ni360   1.941       .  S
O355        C364   1.287       .  A
O356       Ni360   1.945       .  S
O356        C363   1.288       .  A
O357       Ni360   1.897       .  S
O357        C362   1.277       .  A
O358       Ni360   1.886       .  S
O358        C361   1.274       .  A
Ni359      Ni360   2.384       .  S
C361        C645   1.467       .  S
C362        C686   1.489       .  S
C363       C1722   1.493       .  S
C364        C770   1.492       .  S
O365       Ni373   1.934       .  S
O365        C375   1.285       .  A
O366       Ni373   1.933       .  S
O366        C376   1.285       .  A
O367       Ni373   1.898       .  S
O367        C377   1.276       .  A
O368       Ni373   1.903       .  S
O368        C378   1.278       .  A
O369       Ni374   1.937       .  S
O369        C378   1.286       .  A
O370       Ni374   1.940       .  S
O370        C377   1.286       .  A
O371       Ni374   1.900       .  S
O371        C376   1.277       .  A
O372       Ni374   1.889       .  S
O372        C375   1.275       .  A
Ni373      Ni374   2.388       .  S
C375        C561   1.469       .  S
C376        C602   1.481       .  S
C377        C617   1.480       .  S
C378       C1205   1.488       .  S
O379       Ni387   1.934       .  S
O379        C389   1.285       .  A
O380       Ni387   1.938       .  S
O380        C390   1.285       .  A
O381       Ni387   1.903       .  S
O381        C391   1.277       .  A
O382       Ni387   1.886       .  S
O382        C392   1.275       .  A
O383       Ni388   1.934       .  S
O383        C392   1.284       .  A
O384       Ni388   1.934       .  S
O384        C391   1.286       .  A
O385       Ni388   1.911       .  S
O385        C390   1.279       .  A
O386       Ni388   1.907       .  S
O386        C389   1.280       .  A
Ni387      Ni388   2.386       .  S
C389        C630   1.498       .  S
C390       C2142   1.480       .  S
C391        C546   1.483       .  S
C392        C505   1.464       .  S
O393       Ni401   1.933       .  S
O393        C403   1.284       .  A
O394       Ni401   1.933       .  S
O394        C404   1.285       .  A
O395       Ni401   1.900       .  S
O395        C405   1.277       .  A
O396       Ni401   1.906       .  S
O396        C406   1.279       .  A
O397       Ni402   1.945       .  S
O397        C406   1.287       .  A
O398       Ni402   1.942       .  S
O398        C405   1.287       .  A
O399       Ni402   1.896       .  S
O399        C404   1.277       .  A
O400       Ni402   1.886       .  S
O400        C403   1.275       .  A
Ni401      Ni402   2.386       .  S
C403        C714   1.468       .  S
C404        C589   1.481       .  S
C405        C477   1.486       .  S
C406       C1401   1.497       .  S
O407       Ni415   1.947       .  S
O407        C417   1.288       .  A
O408       Ni415   1.946   1_565  S
O408        C418   1.288       .  A
O409       Ni415   1.891       .  S
O409        C419   1.275       .  A
O410       Ni415   1.887   1_565  S
O410        C420   1.273       .  A
O411       Ni416   1.954       .  S
O411        C420   1.289       .  A
O412       Ni416   1.951       .  S
O412        C419   1.289   1_565  A
O413       Ni416   1.883       .  S
O413        C418   1.274       .  A
O414       Ni416   1.876       .  S
O414        C417   1.273   1_565  A
Ni415      Ni416   2.385   1_545  S
C417        C518   1.480       .  S
C418        C673   1.482       .  S
C419       C1834   1.492       .  S
C420        C490   1.479       .  S
O421       Ni429   1.938       .  S
O421        C431   1.287       .  A
O422       Ni429   1.938   1_455  S
O422        C432   1.285       .  A
O423       Ni429   1.902       .  S
O423        C433   1.277       .  A
O424       Ni429   1.904       .  S
O424        C434   1.278       .  A
O425       Ni430   1.942       .  S
O425        C434   1.287       .  A
O426       Ni430   1.940       .  S
O426        C433   1.287       .  A
O427       Ni430   1.891   1_455  S
O427        C432   1.276       .  A
O428       Ni430   1.887       .  S
O428        C431   1.275       .  A
Ni429      Ni430   2.384       .  S
C431        C574   1.483       .  S
C432        C729   1.475       .  S
C433        C462   1.491       .  S
C434       C1134   1.493       .  S
O435       Ni443   1.941   1_455  S
O435        C445   1.287       .  A
O436       Ni443   1.944       .  S
O436        C446   1.287       .  A
O437       Ni443   1.893       .  S
O437        C447   1.276       .  A
O438       Ni443   1.890       .  S
O438        C448   1.276       .  A
O439       Ni444   1.944       .  S
O439        C448   1.287       .  A
O440       Ni444   1.941       .  S
O440        C447   1.287       .  A
O441       Ni444   1.890       .  S
O441        C446   1.276       .  A
O442       Ni444   1.892   1_455  S
O442        C445   1.275       .  A
Ni443      Ni444   2.386       .  S
C445        C658   1.482       .  S
C446        C533   1.487       .  S
C447       C1961   1.480       .  S
C448        C449   1.482       .  S
C449        C450   1.410       .  A
C449        C454   1.406       .  A
C450        C451   1.413       .  A
C450        N455   1.437       .  S
C451        C452   1.408       .  A
C451        H456   1.083       .  S
C452        C457   1.488   1_554  S
C452        C453   1.407       .  A
C453        C454   1.400       .  A
C453        N458   1.439   1_554  S
C454        H459   1.084       .  S
N455        H475   1.046       .  S
N455        H476   1.046       .  S
C457        C460   1.405       .  A
C457        C464   1.407   1_655  A
N458        H473   1.046   1_656  S
N458        H474   1.045   1_655  S
C460        C461   1.409       .  A
C460        H465   1.084       .  S
C461        C462   1.414       .  A
C461        N466   1.437       .  S
C462        C463   1.410   1_655  A
C463        C464   1.406       .  A
C463        H467   1.083       .  S
C464        N468   1.438       .  S
N466        H469   1.046       .  S
N466        H470   1.045       .  S
N468        H471   1.046       .  S
N468        H472   1.046       .  S
C477        C478   1.416       .  A
C477        C482   1.406       .  A
C478        C479   1.404       .  A
C478        N483   1.438       .  S
C479        C480   1.398       .  A
C479        H484   1.084       .  S
C480        C485   1.483   1_556  S
C480        C481   1.412       .  A
C481        C482   1.412       .  A
C481        N486   1.437       .  S
C482        H487   1.083       .  S
N483        H503   1.046       .  S
N483        H504   1.046       .  S
C485        C488   1.397       .  A
C485        C492   1.413       .  A
N486        H501   1.045       .  S
N486        H502   1.045       .  S
C488        C489   1.403       .  A
C488        H493   1.084   1_565  S
C489        C490   1.416       .  A
C489        N494   1.439   1_565  S
C490        C491   1.402       .  A
C491        C492   1.413       .  A
C491        H495   1.083       .  S
C492        N496   1.437       .  S
N494        H497   1.045       .  S
N494        H498   1.046       .  S
N496        H499   1.046       .  S
N496        H500   1.045   1_554  S
C505        C506   1.407       .  A
C505        C510   1.404       .  A
C506        C507   1.405       .  A
C506        N511   1.438       .  S
C507        C508   1.407       .  A
C507        H512   1.084       .  S
C508        C513   1.478       .  S
C508        C509   1.406       .  A
C509        C510   1.400       .  A
C509        N514   1.438       .  S
C510        H515   1.084       .  S
N511        H531   1.044       .  S
N511        H532   1.046       .  S
C513        C516   1.408       .  A
C513        C520   1.402   1_545  A
N514        H529   1.046       .  S
N514        H530   1.045       .  S
C516        C517   1.410       .  A
C516        H521   1.084       .  S
C517        C518   1.409       .  A
C517        N522   1.437       .  S
C518        C519   1.410   1_545  A
C519        C520   1.396       .  A
C519        H523   1.084       .  S
C520        N524   1.438       .  S
N522        H525   1.045       .  S
N522        H526   1.045       .  S
N524        H527   1.046       .  S
N524        H528   1.045       .  S
C533        C534   1.414       .  A
C533        C538   1.409       .  A
C534        C535   1.412       .  A
C534        N539   1.437       .  S
C535        C536   1.404       .  A
C535        H540   1.084       .  S
C536        C541   1.480       .  S
C536        C537   1.404       .  A
C537        C538   1.401       .  A
C537        N542   1.438       .  S
C538        H543   1.084       .  S
N539        H559   1.045       .  S
N539        H560   1.046       .  S
C541        C544   1.403       .  A
C541        C548   1.406       .  A
N542        H557   1.046       .  S
N542        H558   1.045       .  S
C544        C545   1.408       .  A
C544        H549   1.084       .  S
C545        C546   1.412       .  A
C545        N550   1.438       .  S
C546        C547   1.408       .  A
C547        C548   1.406       .  A
C547        H551   1.084       .  S
C548        N552   1.438       .  S
N550        H553   1.046       .  S
N550        H554   1.046       .  S
N552        H555   1.046       .  S
N552        H556   1.045       .  S
C561        C562   1.409       .  A
C561        C566   1.403       .  A
C562        C563   1.407       .  A
C562        N567   1.438       .  S
C563        C564   1.405       .  A
C563        H568   1.084       .  S
C564        C569   1.479       .  S
C564        C565   1.408       .  A
C565        C566   1.400       .  A
C565        N570   1.438       .  S
C566        H571   1.084       .  S
N567        H587   1.045       .  S
N567        H588   1.046       .  S
C569        C572   1.405       .  A
C569        C576   1.405       .  A
N570        H585   1.046       .  S
N570        H586   1.045       .  S
C572        C573   1.404       .  A
C572        H577   1.084       .  S
C573        C574   1.408       .  A
C573        N578   1.432       .  S
C574        C575   1.410       .  A
C575        C576   1.401       .  A
C575        H579   1.083       .  S
C576        N580   1.438       .  S
N578        H581   1.046       .  S
N578        H582   1.045       .  S
N580        H583   1.046       .  S
N580        H584   1.046       .  S
C589        C590   1.413       .  A
C589        C594   1.407       .  A
C590        C591   1.409       .  A
C590        N595   1.437       .  S
C591        C592   1.402   1_565  A
C591        H596   1.084       .  S
C592        C597   1.476       .  S
C592        C593   1.405       .  A
C593        C594   1.401   1_545  A
C593        N598   1.438       .  S
C594        H599   1.084       .  S
N595        H615   1.045       .  S
N595        H616   1.046       .  S
C597        C600   1.397       .  A
C597        C604   1.409       .  A
N598        H613   1.046       .  S
N598        H614   1.045       .  S
C600        C601   1.403       .  A
C600        H605   1.084       .  S
C601        C602   1.416       .  A
C601        N606   1.438       .  S
C602        C603   1.404       .  A
C603        C604   1.407       .  A
C603        H607   1.084       .  S
C604        N608   1.438       .  S
N606        H609   1.046       .  S
N606        H610   1.046       .  S
N608        H611   1.046       .  S
N608        H612   1.045       .  S
C617        C618   1.413       .  A
C617        C622   1.405       .  A
C618        C619   1.403       .  A
C618        N623   1.432       .  S
C619        C620   1.407       .  A
C619        H624   1.083       .  S
C620        C625   1.494       .  S
C620        C621   1.413       .  A
C621        C622   1.406       .  A
C621        N626   1.438       .  S
C622        H627   1.084       .  S
N623        H643   1.045       .  S
N623        H644   1.045       .  S
C625        C628   1.406   1_556  A
C625        C632   1.409   1_556  A
N626        H641   1.045       .  S
N626        H642   1.046       .  S
C628        C629   1.410       .  A
C628        H633   1.083   1_554  S
C629        C630   1.417       .  A
C629        N634   1.437       .  S
C630        C631   1.411       .  A
C631        C632   1.405       .  A
C631        H635   1.083       .  S
C632        N636   1.438   1_554  S
N634        H637   1.046       .  S
N634        H638   1.046       .  S
N636        H639   1.039   1_556  S
N636        H640   1.052       .  S
C645        C646   1.411       .  A
C645        C650   1.400       .  A
C646        C647   1.402       .  A
C646        N651   1.439       .  S
C647        C648   1.400       .  A
C647        H652   1.084       .  S
C648        C653   1.481       .  S
C648        C649   1.413       .  A
C649        C650   1.407       .  A
C649        N654   1.437       .  S
C650        H655   1.084       .  S
N651        H671   1.046       .  S
N651        H672   1.045       .  S
C653        C656   1.397       .  A
C653        C660   1.412       .  A
N654        H669   1.045       .  S
N654        H670   1.046       .  S
C656        C657   1.402       .  A
C656        H661   1.084       .  S
C657        C658   1.419       .  A
C657        N662   1.439       .  S
C658        C659   1.403       .  A
C659        C660   1.408       .  A
C659        H663   1.083       .  S
C660        N664   1.438       .  S
N662        H665   1.046       .  S
N662        H666   1.046       .  S
N664        H667   1.045       .  S
N664        H668   1.046       .  S
C673        C674   1.411       .  A
C673        C678   1.409       .  A
C674        C675   1.411       .  A
C674        N679   1.437       .  S
C675        C676   1.405       .  A
C675        H680   1.084       .  S
C676        C681   1.479       .  S
C676        C677   1.404       .  A
C677        C678   1.400       .  A
C677        N682   1.438       .  S
C678        H683   1.084       .  S
N679        H699   1.045       .  S
N679        H700   1.046       .  S
C681        C684   1.403       .  A
C681        C688   1.403       .  A
N682        H697   1.046       .  S
N682        H698   1.046       .  S
C684        C685   1.408       .  A
C684        H689   1.084       .  S
C685        C686   1.415       .  A
C685        N690   1.437       .  S
C686        C687   1.411       .  A
C687        C688   1.403       .  A
C687        H691   1.083       .  S
C688        N692   1.438       .  S
N690        H693   1.046       .  S
N690        H694   1.046       .  S
N692        H695   1.046       .  S
N692        H696   1.046       .  S
C701        C702   1.407       .  A
C701        C706   1.401       .  A
C702        C703   1.399       .  A
C702        N707   1.438       .  S
C703        C704   1.402       .  A
C703        H708   1.084       .  S
C704        C709   1.479       .  S
C704        C705   1.411       .  A
C705        C706   1.406       .  A
C705        N710   1.437       .  S
C706        H711   1.084       .  S
N707        H727   1.045       .  S
N707        H728   1.046       .  S
C709        C712   1.399       .  A
C709        C716   1.414       .  A
N710        H725   1.046       .  S
N710        H726   1.046       .  S
C712        C713   1.401       .  A
C712        H717   1.084       .  S
C713        C714   1.413       .  A
C713        N718   1.439       .  S
C714        C715   1.398       .  A
C715        C716   1.404       .  A
C715        H719   1.084       .  S
C716        N720   1.438       .  S
N718        H721   1.045       .  S
N718        H722   1.046       .  S
N720        H723   1.045       .  S
N720        H724   1.046       .  S
C729        C730   1.409       .  A
C729        C734   1.405       .  A
C730        C731   1.409       .  A
C730        N735   1.437       .  S
C731        C732   1.405       .  A
C731        H736   1.084       .  S
C732        C737   1.480       .  S
C732        C733   1.407       .  A
C733        C734   1.400       .  A
C733        N738   1.439       .  S
C734        H739   1.084       .  S
N735        H755   1.045       .  S
N735        H756   1.046       .  S
C737        C740   1.400       .  A
C737        C744   1.412       .  A
N738        H753   1.045       .  S
N738        H754   1.046       .  S
C740        C741   1.400       .  A
C740        H745   1.084       .  S
C741        C742   1.410       .  A
C741        N746   1.433       .  S
C742        C743   1.402       .  A
C743        C744   1.406       .  A
C743        H747   1.084       .  S
C744        N748   1.438       .  S
N746        H749   1.046       .  S
N746        H750   1.045       .  S
N748        H751   1.046       .  S
N748        H752   1.045       .  S
C757        C758   1.411       .  A
C757        C762   1.403       .  A
C758        C759   1.408       .  A
C758        N763   1.438       .  S
C759        C760   1.406       .  A
C759        H764   1.083       .  S
C760        C765   1.486   1_556  S
C760        C761   1.410       .  A
C761        C762   1.403       .  A
C761        N766   1.438       .  S
C762        H767   1.084       .  S
N763        H783   1.046       .  S
N763        H784   1.045       .  S
C765        C768   1.406       .  A
C765        C772   1.405       .  A
N766        H781   1.045       .  S
N766        H782   1.046       .  S
C768        C769   1.410       .  A
C768        H773   1.084       .  S
C769        C770   1.414       .  A
C769        N774   1.437       .  S
C770        C771   1.412       .  A
C771        C772   1.401       .  A
C771        H775   1.083       .  S
C772        N776   1.439       .  S
N774        H777   1.046       .  S
N774        H778   1.045       .  S
N776        H779   1.046       .  S
N776        H780   1.045   1_554  S
C785        C786   1.414       .  A
C785        C790   1.412       .  A
C786        C787   1.413       .  A
C786        N791   1.437       .  S
C787        C788   1.408       .  A
C787        H792   1.083       .  S
C788        C793   1.489       .  S
C788        C789   1.406       .  A
C789        C790   1.400       .  A
C789        N794   1.439       .  S
C790        H795   1.083       .  S
N791        H811   1.046       .  S
N791        H812   1.046       .  S
C793        C796   1.406       .  A
C793        C800   1.409       .  A
N794        H809   1.046       .  S
N794        H810   1.046       .  S
C796        C797   1.409       .  A
C796        H801   1.084       .  S
C797        C798   1.412       .  A
C797        N802   1.437       .  S
C798        C799   1.406       .  A
C799        C800   1.404       .  A
C799        H803   1.084       .  S
C800        N804   1.438       .  S
N802        H805   1.046       .  S
N802        H806   1.045       .  S
N804        H807   1.045       .  S
N804        H808   1.046       .  S
C813        C814   1.418       .  A
C813        C818   1.406       .  A
C814        C815   1.406       .  A
C814        N819   1.438       .  S
C815        C816   1.398       .  A
C815        H820   1.084       .  S
C816        C821   1.481       .  S
C816        C817   1.410       .  A
C817        C818   1.409       .  A
C817        N822   1.438       .  S
C818        H823   1.083       .  S
N819        H839   1.046       .  S
N819        H840   1.046       .  S
C821        C824   1.398       .  A
C821        C828   1.412       .  A
N822        H837   1.045       .  S
N822        H838   1.045       .  S
C824        C825   1.403       .  A
C824        H829   1.084       .  S
C825        C826   1.414       .  A
C825        N830   1.438       .  S
C826        C827   1.403       .  A
C827        C828   1.411       .  A
C827        H831   1.084       .  S
C828        N832   1.437       .  S
N830        H833   1.045       .  S
N830        H834   1.046       .  S
N832        H835   1.046       .  S
N832        H836   1.045       .  S
C841        C842   1.417       .  A
C841        C846   1.403       .  A
C842        C843   1.399       .  A
C842        N847   1.439       .  S
C843        C844   1.397       .  A
C843        H848   1.084       .  S
C844        C849   1.478       .  S
C844        C845   1.412       .  A
C845        C846   1.407       .  A
C845        N850   1.437       .  S
C846        H851   1.084       .  S
N847        H867   1.044       .  S
N847        H868   1.046       .  S
C849        C852   1.401       .  A
C849        C856   1.412       .  A
N850        H865   1.045       .  S
N850        H866   1.046       .  S
C852        C853   1.399       .  A
C852        H857   1.084       .  S
C853        C854   1.406       .  A
C853        N858   1.433       .  S
C854        C855   1.401       .  A
C855        C856   1.406       .  A
C855        H859   1.084       .  S
C856        N860   1.438       .  S
N858        H861   1.045       .  S
N858        H862   1.046       .  S
N860        H863   1.046       .  S
N860        H864   1.045       .  S
C869        C870   1.412       .  A
C869        C874   1.406       .  A
C870        C871   1.410       .  A
C870        N875   1.436       .  S
C871        C872   1.404       .  A
C871        H876   1.084       .  S
C872        C877   1.485       .  S
C872        C873   1.408       .  A
C873        C874   1.405       .  A
C873        N878   1.438       .  S
C874        H879   1.084       .  S
N875        H895   1.043       .  S
N875        H896   1.046       .  S
C877        C880   1.399       .  A
C877        C884   1.413       .  A
N878        H893   1.045       .  S
N878        H894   1.046       .  S
C880        C881   1.404       .  A
C880        H885   1.084       .  S
C881        C882   1.414       .  A
C881        N886   1.438       .  S
C882        C883   1.402       .  A
C883        C884   1.412       .  A
C883        H887   1.084       .  S
C884        N888   1.437       .  S
N886        H889   1.047       .  S
N886        H890   1.043       .  S
N888        H891   1.046       .  S
N888        H892   1.045       .  S
C897        C898   1.409       .  A
C897        C902   1.408   1_545  A
C898        C899   1.406       .  A
C898        N903   1.437       .  S
C899        C900   1.407       .  A
C899        H904   1.084       .  S
C900        C905   1.482       .  S
C900        C901   1.406   1_545  A
C901        C902   1.402       .  A
C901        N906   1.438       .  S
C902        H907   1.084       .  S
N903        H923   1.046       .  S
N903        H924   1.045       .  S
C905        C908   1.408       .  A
C905        C912   1.406       .  A
N906        H921   1.045       .  S
N906        H922   1.046       .  S
C908        C909   1.409       .  A
C908        H913   1.084       .  S
C909        C910   1.408       .  A
C909        N914   1.438       .  S
C910        C911   1.403       .  A
C911        C912   1.399       .  A
C911        H915   1.081       .  S
C912        N916   1.438       .  S
N914        H917   1.046   1_545  S
N914        H918   1.046       .  S
N916        H919   1.046       .  S
N916        H920   1.045       .  S
C925        C926   1.415       .  A
C925        C930   1.407   1_565  A
C926        C927   1.410   1_565  A
C926        N931   1.437       .  S
C927        C928   1.404       .  A
C927        H932   1.084       .  S
C928        C933   1.486       .  S
C928        C929   1.408       .  A
C929        C930   1.403       .  A
C929        N934   1.438       .  S
C930        H935   1.084       .  S
N931        H951   1.045       .  S
N931        H952   1.046       .  S
C933        C936   1.401       .  A
C933        C940   1.412       .  A
N934        H949   1.045       .  S
N934        H950   1.046       .  S
C936        C937   1.399       .  A
C936        H941   1.084       .  S
C937        C938   1.417       .  A
C937        N942   1.440       .  S
C938        C939   1.403       .  A
C939        C940   1.410       .  A
C939        H943   1.084       .  S
C940        N944   1.437       .  S
N942        H945   1.046       .  S
N942        H946   1.043       .  S
N944        H947   1.046       .  S
N944        H948   1.045       .  S
C953        C954   1.409       .  A
C953        C958   1.402   1_655  A
C954        C955   1.407       .  A
C954        N959   1.437       .  S
C955        C956   1.404       .  A
C955        H960   1.084       .  S
C956        C961   1.487       .  S
C956        C957   1.411       .  A
C957        C958   1.408   1_655  A
C957        N962   1.437   1_655  S
C958        H963   1.084       .  S
N959        H979   1.045       .  S
N959        H980   1.045       .  S
C961        C964   1.405       .  A
C961        C968   1.405       .  A
N962        H977   1.046       .  S
N962        H978   1.046       .  S
C964        C965   1.412       .  A
C964        H969   1.084       .  S
C965        C966   1.416       .  A
C965        N970   1.437       .  S
C966        C967   1.412       .  A
C967        C968   1.404       .  A
C967        H971   1.083       .  S
C968        N972   1.438       .  S
N970        H973   1.045   1_655  S
N970        H974   1.046   1_655  S
N972        H975   1.045       .  S
N972        H976   1.046       .  S
C981        C982   1.411       .  A
C981        C986   1.409       .  A
C982        C983   1.407       .  A
C982        N987   1.437       .  S
C983        C984   1.406       .  A
C983        H988   1.084       .  S
C984        C989   1.477       .  S
C984        C985   1.403       .  A
C985        C986   1.399       .  A
C985        N990   1.438       .  S
C986        H991   1.084       .  S
N987       H1007   1.045       .  S
N987       H1008   1.046       .  S
C989        C992   1.404       .  A
C989        C996   1.407       .  A
N990       H1005   1.045       .  S
N990       H1006   1.046       .  S
C992        C993   1.407       .  A
C992        H997   1.084       .  S
C993        C994   1.408       .  A
C993        N998   1.437       .  S
C994        C995   1.402       .  A
C995        C996   1.399       .  A
C995        H999   1.084       .  S
C996       N1000   1.438       .  S
N998       H1001   1.046       .  S
N998       H1002   1.045       .  S
N1000      H1003   1.046       .  S
N1000      H1004   1.046       .  S
C1009      C1010   1.416       .  A
C1009      C1014   1.403       .  A
C1010      C1011   1.402       .  A
C1010      N1015   1.439       .  S
C1011      C1012   1.402       .  A
C1011      H1016   1.084       .  S
C1012      C1017   1.482       .  S
C1012      C1013   1.408       .  A
C1013      C1014   1.406       .  A
C1013      N1018   1.437       .  S
C1014      H1019   1.084       .  S
N1015      H1035   1.044       .  S
N1015      H1036   1.046       .  S
C1017      C1020   1.403       .  A
C1017      C1024   1.404       .  A
N1018      H1033   1.046       .  S
N1018      H1034   1.046       .  S
C1020      C1021   1.410       .  A
C1020      H1025   1.084       .  S
C1021      C1022   1.417       .  A
C1021      N1026   1.437       .  S
C1022      C1023   1.412       .  A
C1023      C1024   1.403       .  A
C1023      H1027   1.083       .  S
C1024      N1028   1.438       .  S
N1026      H1029   1.046       .  S
N1026      H1030   1.046       .  S
N1028      H1031   1.046       .  S
N1028      H1032   1.046       .  S
C1037      C1038   1.409       .  A
C1037      C1042   1.404       .  A
C1038      C1039   1.400       .  A
C1038      N1043   1.433       .  S
C1039      C1040   1.406       .  A
C1039      H1044   1.084       .  S
C1040      C1045   1.476       .  S
C1040      C1041   1.405       .  A
C1041      C1042   1.400       .  A
C1041      N1046   1.437       .  S
C1042      H1047   1.084       .  S
N1043      H1063   1.044       .  S
N1043      H1064   1.047       .  S
C1045      C1048   1.407       .  A
C1045      C1052   1.402       .  A
N1046      H1061   1.046       .  S
N1046      H1062   1.046       .  S
C1048      C1049   1.409       .  A
C1048      H1053   1.084       .  S
C1049      C1050   1.408       .  A
C1049      N1054   1.437       .  S
C1050      C1051   1.407       .  A
C1051      C1052   1.398       .  A
C1051      H1055   1.084       .  S
C1052      N1056   1.438       .  S
N1054      H1057   1.046       .  S
N1054      H1058   1.045       .  S
N1056      H1059   1.046       .  S
N1056      H1060   1.046       .  S
C1065      C1066   1.421       .  A
C1065      C1070   1.406       .  A
C1066      C1067   1.404       .  A
C1066      N1071   1.439       .  S
C1067      C1068   1.397       .  A
C1067      H1072   1.084       .  S
C1068      C1073   1.481       .  S
C1068      C1069   1.410       .  A
C1069      C1070   1.408       .  A
C1069      N1074   1.437       .  S
C1070      H1075   1.083       .  S
N1071      H1091   1.045       .  S
N1071      H1092   1.046       .  S
C1073      C1076   1.397       .  A
C1073      C1080   1.411       .  A
N1074      H1089   1.045       .  S
N1074      H1090   1.046       .  S
C1076      C1077   1.403       .  A
C1076      H1081   1.084       .  S
C1077      C1078   1.419       .  A
C1077      N1082   1.439       .  S
C1078      C1079   1.405       .  A
C1079      C1080   1.410       .  A
C1079      H1083   1.083       .  S
C1080      N1084   1.437       .  S
N1082      H1085   1.045       .  S
N1082      H1086   1.046       .  S
N1084      H1087   1.046       .  S
N1084      H1088   1.045       .  S
C1093      C1094   1.411       .  A
C1093      C1098   1.407       .  A
C1094      C1095   1.411       .  A
C1094      N1099   1.437       .  S
C1095      C1096   1.405       .  A
C1095      H1100   1.084       .  S
C1096      C1101   1.479       .  S
C1096      C1097   1.405       .  A
C1097      C1098   1.400       .  A
C1097      N1102   1.438       .  S
C1098      H1103   1.084       .  S
N1099      H1119   1.045       .  S
N1099      H1120   1.046       .  S
C1101      C1104   1.401       .  A
C1101      C1108   1.410       .  A
N1102      H1117   1.045       .  S
N1102      H1118   1.046       .  S
C1104      C1105   1.404       .  A
C1104      H1109   1.084       .  S
C1105      C1106   1.411       .  A
C1105      N1110   1.438       .  S
C1106      C1107   1.402       .  A
C1107      C1108   1.407       .  A
C1107      H1111   1.084       .  S
C1108      N1112   1.437       .  S
N1110      H1113   1.046       .  S
N1110      H1114   1.046       .  S
N1112      H1115   1.045       .  S
N1112      H1116   1.046       .  S
C1121      C1122   1.413       .  A
C1121      C1126   1.408   1_655  A
C1122      C1123   1.412       .  A
C1122      N1127   1.437       .  S
C1123      C1124   1.405       .  A
C1123      H1128   1.084       .  S
C1124      C1129   1.490       .  S
C1124      C1125   1.409   1_655  A
C1125      C1126   1.407       .  A
C1125      N1130   1.438       .  S
C1126      H1131   1.084       .  S
N1127      H1147   1.045       .  S
N1127      H1148   1.046       .  S
C1129      C1132   1.399   1_655  A
C1129      C1136   1.413       .  A
N1130      H1145   1.046       .  S
N1130      H1146   1.046       .  S
C1132      C1133   1.402       .  A
C1132      H1137   1.084       .  S
C1133      C1134   1.416   1_455  A
C1133      N1138   1.433       .  S
C1134      C1135   1.407       .  A
C1135      C1136   1.414       .  A
C1135      H1139   1.083       .  S
C1136      N1140   1.437       .  S
N1138      H1141   1.046       .  S
N1138      H1142   1.046       .  S
N1140      H1143   1.046       .  S
N1140      H1144   1.045       .  S
C1149      C1150   1.414       .  A
C1149      C1154   1.410       .  A
C1150      C1151   1.415       .  A
C1150      N1155   1.437       .  S
C1151      C1152   1.409       .  A
C1151      H1156   1.083       .  S
C1152      C1157   1.496       .  S
C1152      C1153   1.408       .  A
C1153      C1154   1.406       .  A
C1153      N1158   1.438   1_545  S
C1154      H1159   1.084       .  S
N1155      H1175   1.045       .  S
N1155      H1176   1.046       .  S
C1157      C1160   1.408   1_545  A
C1157      C1164   1.408       .  A
N1158      H1173   1.046       .  S
N1158      H1174   1.046       .  S
C1160      C1161   1.414       .  A
C1160      H1165   1.083       .  S
C1161      C1162   1.415       .  A
C1161      N1166   1.437       .  S
C1162      C1163   1.409   1_565  A
C1163      C1164   1.406       .  A
C1163      H1167   1.083       .  S
C1164      N1168   1.438       .  S
N1166      H1169   1.046   1_655  S
N1166      H1170   1.045       .  S
N1168      H1171   1.045       .  S
N1168      H1172   1.046       .  S
C1177      C1178   1.410       .  A
C1177      C1182   1.408       .  A
C1178      C1179   1.414       .  A
C1178      N1183   1.436       .  S
C1179      C1180   1.409       .  A
C1179      H1184   1.083       .  S
C1180      C1185   1.492       .  S
C1180      C1181   1.407       .  A
C1181      C1182   1.405       .  A
C1181      N1186   1.438       .  S
C1182      H1187   1.084       .  S
N1183      H1203   1.045       .  S
N1183      H1204   1.046       .  S
C1185      C1188   1.407       .  A
C1185      C1192   1.407       .  A
N1186      H1201   1.046       .  S
N1186      H1202   1.046       .  S
C1188      C1189   1.413       .  A
C1188      H1193   1.084       .  S
C1189      C1190   1.415       .  A
C1189      N1194   1.437       .  S
C1190      C1191   1.411       .  A
C1191      C1192   1.406       .  A
C1191      H1195   1.083   1_655  S
C1192      N1196   1.438   1_655  S
N1194      H1197   1.045       .  S
N1194      H1198   1.046       .  S
N1196      H1199   1.046       .  S
N1196      H1200   1.046       .  S
C1205      C1206   1.417       .  A
C1205      C1210   1.406       .  A
C1206      C1207   1.404       .  A
C1206      N1211   1.438       .  S
C1207      C1208   1.400       .  A
C1207      H1212   1.084       .  S
C1208      C1213   1.487       .  S
C1208      C1209   1.411       .  A
C1209      C1210   1.411       .  A
C1209      N1214   1.437       .  S
C1210      H1215   1.083       .  S
N1211      H1231   1.046       .  S
N1211      H1232   1.046       .  S
C1213      C1216   1.406       .  A
C1213      C1220   1.407       .  A
N1214      H1229   1.045       .  S
N1214      H1230   1.046       .  S
C1216      C1217   1.414       .  A
C1216      H1221   1.083       .  S
C1217      C1218   1.414       .  A
C1217      N1222   1.437       .  S
C1218      C1219   1.408       .  A
C1219      C1220   1.400       .  A
C1219      H1223   1.084       .  S
C1220      N1224   1.439       .  S
N1222      H1225   1.046       .  S
N1222      H1226   1.045       .  S
N1224      H1227   1.046       .  S
N1224      H1228   1.046       .  S
C1233      C1234   1.409       .  A
C1233      C1238   1.403       .  A
C1234      C1235   1.411       .  A
C1234      N1239   1.438       .  S
C1235      C1236   1.409       .  A
C1235      H1240   1.083       .  S
C1236      C1241   1.489       .  S
C1236      C1237   1.410       .  A
C1237      C1238   1.402       .  A
C1237      N1242   1.438       .  S
C1238      H1243   1.084       .  S
N1239      H1259   1.045       .  S
N1239      H1260   1.046       .  S
C1241      C1244   1.405       .  A
C1241      C1248   1.413       .  A
N1242      H1257   1.046       .  S
N1242      H1258   1.046       .  S
C1244      C1245   1.405       .  A
C1244      H1249   1.084       .  S
C1245      C1246   1.407       .  A
C1245      N1250   1.438       .  S
C1246      C1247   1.401       .  A
C1247      C1248   1.407       .  A
C1247      H1251   1.084       .  S
C1248      N1252   1.438       .  S
N1250      H1253   1.046       .  S
N1250      H1254   1.045       .  S
N1252      H1255   1.045       .  S
N1252      H1256   1.046       .  S
C1261      C1262   1.414       .  A
C1261      C1266   1.408       .  A
C1262      C1263   1.413       .  A
C1262      N1267   1.437       .  S
C1263      C1264   1.408       .  A
C1263      H1268   1.083       .  S
C1264      C1269   1.492       .  S
C1264      C1265   1.409       .  A
C1265      C1266   1.402       .  A
C1265      N1270   1.439       .  S
C1266      H1271   1.084       .  S
N1267      H1287   1.046       .  S
N1267      H1288   1.045       .  S
C1269      C1272   1.409       .  A
C1269      C1276   1.409       .  A
N1270      H1285   1.046       .  S
N1270      H1286   1.046       .  S
C1272      C1273   1.411       .  A
C1272      H1277   1.084       .  S
C1273      C1274   1.410       .  A
C1273      N1278   1.437       .  S
C1274      C1275   1.408       .  A
C1275      C1276   1.404       .  A
C1275      H1279   1.084       .  S
C1276      N1280   1.438       .  S
N1278      H1281   1.046       .  S
N1278      H1282   1.046       .  S
N1280      H1283   1.045       .  S
N1280      H1284   1.046       .  S
C1289      C1290   1.416       .  A
C1289      C1294   1.412       .  A
C1290      C1291   1.412       .  A
C1290      N1295   1.437       .  S
C1291      C1292   1.406       .  A
C1291      H1296   1.084       .  S
C1292      C1297   1.491       .  S
C1292      C1293   1.407       .  A
C1293      C1294   1.405       .  A
C1293      N1298   1.438       .  S
C1294      H1299   1.083       .  S
N1295      H1315   1.045       .  S
N1295      H1316   1.046       .  S
C1297      C1300   1.406       .  A
C1297      C1304   1.408       .  A
N1298      H1313   1.046       .  S
N1298      H1314   1.045       .  S
C1300      C1301   1.411       .  A
C1300      H1305   1.084       .  S
C1301      C1302   1.414       .  A
C1301      N1306   1.437       .  S
C1302      C1303   1.409       .  A
C1303      C1304   1.405       .  A
C1303      H1307   1.084       .  S
C1304      N1308   1.438       .  S
N1306      H1309   1.045       .  S
N1306      H1310   1.045       .  S
N1308      H1311   1.045       .  S
N1308      H1312   1.046       .  S
C1317      C1318   1.420       .  A
C1317      C1322   1.404       .  A
C1318      C1319   1.401       .  A
C1318      N1323   1.439       .  S
C1319      C1320   1.398       .  A
C1319      H1324   1.084       .  S
C1320      C1325   1.492       .  S
C1320      C1321   1.416       .  A
C1321      C1322   1.412       .  A
C1321      N1326   1.437       .  S
C1322      H1327   1.083       .  S
N1323      H1343   1.046       .  S
N1323      H1344   1.045       .  S
C1325      C1328   1.401       .  A
C1325      C1332   1.415       .  A
N1326      H1341   1.046       .  S
N1326      H1342   1.046       .  S
C1328      C1329   1.406       .  A
C1328      H1333   1.084       .  S
C1329      C1330   1.419       .  A
C1329      N1334   1.439       .  S
C1330      C1331   1.403       .  A
C1331      C1332   1.408       .  A
C1331      H1335   1.083       .  S
C1332      N1336   1.438       .  S
N1334      H1337   1.045       .  S
N1334      H1338   1.046       .  S
N1336      H1339   1.045       .  S
N1336      H1340   1.046       .  S
C1345      C1346   1.417       .  A
C1345      C1350   1.410       .  A
C1346      C1347   1.412       .  A
C1346      N1351   1.437       .  S
C1347      C1348   1.404       .  A
C1347      H1352   1.084       .  S
C1348      C1353   1.489       .  S
C1348      C1349   1.407       .  A
C1349      C1350   1.405       .  A
C1349      N1354   1.438       .  S
C1350      H1355   1.083       .  S
N1351      H1371   1.046       .  S
N1351      H1372   1.045       .  S
C1353      C1356   1.407       .  A
C1353      C1360   1.406       .  A
N1354      H1369   1.046       .  S
N1354      H1370   1.046       .  S
C1356      C1357   1.413       .  A
C1356      H1361   1.084       .  S
C1357      C1358   1.414       .  A
C1357      N1362   1.437       .  S
C1358      C1359   1.410       .  A
C1359      C1360   1.404       .  A
C1359      H1363   1.083       .  S
C1360      N1364   1.438       .  S
N1362      H1365   1.045       .  S
N1362      H1366   1.045       .  S
N1364      H1367   1.046       .  S
N1364      H1368   1.046       .  S
C1373      C1374   1.407       .  A
C1373      C1378   1.404       .  A
C1374      C1375   1.407       .  A
C1374      N1379   1.437       .  S
C1375      C1376   1.408       .  A
C1375      H1380   1.084       .  S
C1376      C1381   1.485       .  S
C1376      C1377   1.408       .  A
C1377      C1378   1.402       .  A
C1377      N1382   1.438       .  S
C1378      H1383   1.084       .  S
N1379      H1399   1.045       .  S
N1379      H1400   1.046       .  S
C1381      C1384   1.408       .  A
C1381      C1388   1.404       .  A
N1382      H1397   1.045       .  S
N1382      H1398   1.046       .  S
C1384      C1385   1.411       .  A
C1384      H1389   1.083       .  S
C1385      C1386   1.413       .  A
C1385      N1390   1.437       .  S
C1386      C1387   1.410       .  A
C1387      C1388   1.399       .  A
C1387      H1391   1.083       .  S
C1388      N1392   1.439       .  S
N1390      H1393   1.046       .  S
N1390      H1394   1.045       .  S
N1392      H1395   1.046       .  S
N1392      H1396   1.046       .  S
C1401      C1402   1.417       .  A
C1401      C1406   1.408       .  A
C1402      C1403   1.416       .  A
C1402      N1407   1.437       .  S
C1403      C1404   1.407       .  A
C1403      H1408   1.083       .  S
C1404      C1409   1.495       .  S
C1404      C1405   1.409       .  A
C1405      C1406   1.404       .  A
C1405      N1410   1.438       .  S
C1406      H1411   1.083       .  S
N1407      H1427   1.045       .  S
N1407      H1428   1.046       .  S
C1409      C1412   1.403       .  A
C1409      C1416   1.413       .  A
N1410      H1425   1.045       .  S
N1410      H1426   1.046       .  S
C1412      C1413   1.406       .  A
C1412      H1417   1.084       .  S
C1413      C1414   1.415       .  A
C1413      N1418   1.438       .  S
C1414      C1415   1.406       .  A
C1415      C1416   1.414       .  A
C1415      H1419   1.083       .  S
C1416      N1420   1.437       .  S
N1418      H1421   1.046       .  S
N1418      H1422   1.045       .  S
N1420      H1423   1.046       .  S
N1420      H1424   1.045       .  S
C1429      C1430   1.410       .  A
C1429      C1434   1.406       .  A
C1430      C1431   1.412       .  A
C1430      N1435   1.437       .  S
C1431      C1432   1.406       .  A
C1431      H1436   1.084       .  S
C1432      C1437   1.484       .  S
C1432      C1433   1.407       .  A
C1433      C1434   1.403       .  A
C1433      N1438   1.438       .  S
C1434      H1439   1.084       .  S
N1435      H1455   1.045       .  S
N1435      H1456   1.046       .  S
C1437      C1440   1.399       .  A
C1437      C1444   1.411       .  A
N1438      H1453   1.046       .  S
N1438      H1454   1.046       .  S
C1440      C1441   1.401       .  A
C1440      H1445   1.084       .  S
C1441      C1442   1.414       .  A
C1441      N1446   1.433       .  S
C1442      C1443   1.404       .  A
C1443      C1444   1.411       .  A
C1443      H1447   1.083       .  S
C1444      N1448   1.437       .  S
N1446      H1449   1.046       .  S
N1446      H1450   1.046       .  S
N1448      H1451   1.046       .  S
N1448      H1452   1.045       .  S
C1457      C1458   1.414       .  A
C1457      C1462   1.408       .  A
C1458      C1459   1.413       .  A
C1458      N1463   1.437       .  S
C1459      C1460   1.406       .  A
C1459      H1464   1.084       .  S
C1460      C1465   1.489       .  S
C1460      C1461   1.408       .  A
C1461      C1462   1.404       .  A
C1461      N1466   1.438       .  S
C1462      H1467   1.084       .  S
N1463      H1483   1.045       .  S
N1463      H1484   1.045       .  S
C1465      C1468   1.406       .  A
C1465      C1472   1.407       .  A
N1466      H1481   1.046       .  S
N1466      H1482   1.046       .  S
C1468      C1469   1.411       .  A
C1468      H1473   1.084       .  S
C1469      C1470   1.413       .  A
C1469      N1474   1.437       .  S
C1470      C1471   1.408       .  A
C1471      C1472   1.406       .  A
C1471      H1475   1.084       .  S
C1472      N1476   1.438       .  S
N1474      H1477   1.046       .  S
N1474      H1478   1.045       .  S
N1476      H1479   1.046       .  S
N1476      H1480   1.046       .  S
C1485      C1486   1.416       .  A
C1485      C1490   1.411       .  A
C1486      C1487   1.413       .  A
C1486      N1491   1.437       .  S
C1487      C1488   1.406       .  A
C1487      H1492   1.084       .  S
C1488      C1493   1.486       .  S
C1488      C1489   1.405       .  A
C1489      C1490   1.403       .  A
C1489      N1494   1.438       .  S
C1490      H1495   1.083       .  S
N1491      H1511   1.046       .  S
N1491      H1512   1.046       .  S
C1493      C1496   1.406       .  A
C1493      C1500   1.404       .  A
N1494      H1509   1.046   1_545  S
N1494      H1510   1.046       .  S
C1496      C1497   1.415   1_545  A
C1496      H1501   1.083       .  S
C1497      C1498   1.417   1_565  A
C1497      N1502   1.437       .  S
C1498      C1499   1.411       .  A
C1499      C1500   1.401       .  A
C1499      H1503   1.083       .  S
C1500      N1504   1.439       .  S
N1502      H1505   1.046       .  S
N1502      H1506   1.046       .  S
N1504      H1507   1.046       .  S
N1504      H1508   1.046       .  S
C1513      C1514   1.404       .  A
C1513      C1518   1.405       .  A
C1514      C1515   1.407       .  A
C1514      N1519   1.431       .  S
C1515      C1516   1.407       .  A
C1515      H1520   1.084       .  S
C1516      C1521   1.476       .  S
C1516      C1517   1.404       .  A
C1517      C1518   1.398       .  A
C1517      N1522   1.438       .  S
C1518      H1523   1.084       .  S
N1519      H1539   1.046       .  S
N1519      H1540   1.045   1_545  S
C1521      C1524   1.405       .  A
C1521      C1528   1.404       .  A
N1522      H1537   1.046       .  S
N1522      H1538   1.046       .  S
C1524      C1525   1.406       .  A
C1524      H1529   1.084       .  S
C1525      C1526   1.407       .  A
C1525      N1530   1.437       .  S
C1526      C1527   1.407       .  A
C1527      C1528   1.401       .  A
C1527      H1531   1.084   1_545  S
C1528      N1532   1.438   1_545  S
N1530      H1533   1.046       .  S
N1530      H1534   1.045       .  S
N1532      H1535   1.045       .  S
N1532      H1536   1.046   1_565  S
C1541      C1542   1.414       .  A
C1541      C1546   1.411       .  A
C1542      C1543   1.411       .  A
C1542      N1547   1.437       .  S
C1543      C1544   1.407       .  A
C1543      H1548   1.083       .  S
C1544      C1549   1.491       .  S
C1544      C1545   1.407       .  A
C1545      C1546   1.403       .  A
C1545      N1550   1.438       .  S
C1546      H1551   1.083       .  S
N1547      H1567   1.046       .  S
N1547      H1568   1.046       .  S
C1549      C1552   1.408       .  A
C1549      C1556   1.408       .  A
N1550      H1565   1.045       .  S
N1550      H1566   1.046       .  S
C1552      C1553   1.411       .  A
C1552      H1557   1.083       .  S
C1553      C1554   1.412       .  A
C1553      N1558   1.437       .  S
C1554      C1555   1.409       .  A
C1555      C1556   1.402       .  A
C1555      H1559   1.084       .  S
C1556      N1560   1.438       .  S
N1558      H1561   1.046       .  S
N1558      H1562   1.045       .  S
N1560      H1563   1.045       .  S
N1560      H1564   1.046       .  S
C1569      C1570   1.417       .  A
C1569      C1574   1.411       .  A
C1570      C1571   1.410       .  A
C1570      N1575   1.437       .  S
C1571      C1572   1.403       .  A
C1571      H1576   1.084       .  S
C1572      C1577   1.486       .  S
C1572      C1573   1.407       .  A
C1573      C1574   1.404       .  A
C1573      N1578   1.439       .  S
C1574      H1579   1.083       .  S
N1575      H1595   1.045       .  S
N1575      H1596   1.046       .  S
C1577      C1580   1.402       .  A
C1577      C1584   1.412       .  A
N1578      H1593   1.046       .  S
N1578      H1594   1.046       .  S
C1580      C1581   1.405       .  A
C1580      H1585   1.084       .  S
C1581      C1582   1.413       .  A
C1581      N1586   1.438       .  S
C1582      C1583   1.403       .  A
C1583      C1584   1.407       .  A
C1583      H1587   1.084       .  S
C1584      N1588   1.437       .  S
N1586      H1589   1.046       .  S
N1586      H1590   1.045       .  S
N1588      H1591   1.045       .  S
N1588      H1592   1.046       .  S
C1597      C1598   1.406       .  A
C1597      C1602   1.405       .  A
C1598      C1599   1.402       .  A
C1598      N1603   1.432       .  S
C1599      C1600   1.403       .  A
C1599      H1604   1.084       .  S
C1600      C1605   1.474       .  S
C1600      C1601   1.407       .  A
C1601      C1602   1.401       .  A
C1601      N1606   1.438       .  S
C1602      H1607   1.084       .  S
N1603      H1623   1.046       .  S
N1603      H1624   1.045       .  S
C1605      C1608   1.404       .  A
C1605      C1612   1.402       .  A
N1606      H1621   1.046       .  S
N1606      H1622   1.046       .  S
C1608      C1609   1.410       .  A
C1608      H1613   1.084       .  S
C1609      C1610   1.415       .  A
C1609      N1614   1.437       .  S
C1610      C1611   1.412       .  A
C1611      C1612   1.396       .  A
C1611      H1615   1.083       .  S
C1612      N1616   1.439       .  S
N1614      H1617   1.046       .  S
N1614      H1618   1.045       .  S
N1616      H1619   1.045       .  S
N1616      H1620   1.046       .  S
C1625      C1626   1.411       .  A
C1625      C1630   1.406       .  A
C1626      C1627   1.411       .  A
C1626      N1631   1.437       .  S
C1627      C1628   1.405       .  A
C1627      H1632   1.084       .  S
C1628      C1633   1.478       .  S
C1628      C1629   1.405       .  A
C1629      C1630   1.399       .  A
C1629      N1634   1.439       .  S
C1630      H1635   1.084       .  S
N1631      H1651   1.046       .  S
N1631      H1652   1.045       .  S
C1633      C1636   1.400       .  A
C1633      C1640   1.410       .  A
N1634      H1649   1.045       .  S
N1634      H1650   1.046       .  S
C1636      C1637   1.402       .  A
C1636      H1641   1.084       .  S
C1637      C1638   1.412   1_545  A
C1637      N1642   1.438       .  S
C1638      C1639   1.403       .  A
C1639      C1640   1.407   1_565  A
C1639      H1643   1.084       .  S
C1640      N1644   1.437       .  S
N1642      H1645   1.045       .  S
N1642      H1646   1.046   1_545  S
N1644      H1647   1.046   1_545  S
N1644      H1648   1.046       .  S
C1653      C1654   1.411       .  A
C1653      C1658   1.404       .  A
C1654      C1655   1.412       .  A
C1654      N1659   1.437       .  S
C1655      C1656   1.408       .  A
C1655      H1660   1.083       .  S
C1656      C1661   1.490       .  S
C1656      C1657   1.409       .  A
C1657      C1658   1.402       .  A
C1657      N1662   1.438       .  S
C1658      H1663   1.084       .  S
N1659      H1679   1.046       .  S
N1659      H1680   1.046       .  S
C1661      C1664   1.407       .  A
C1661      C1668   1.406       .  A
N1662      H1677   1.046       .  S
N1662      H1678   1.046       .  S
C1664      C1665   1.411       .  A
C1664      H1669   1.084       .  S
C1665      C1666   1.414       .  A
C1665      N1670   1.437       .  S
C1666      C1667   1.413       .  A
C1667      C1668   1.404       .  A
C1667      H1671   1.083   1_565  S
C1668      N1672   1.439   1_565  S
N1670      H1673   1.046       .  S
N1670      H1674   1.045       .  S
N1672      H1675   1.046       .  S
N1672      H1676   1.046       .  S
C1681      C1682   1.414       .  A
C1681      C1686   1.406       .  A
C1682      C1683   1.414       .  A
C1682      N1687   1.437       .  S
C1683      C1684   1.407       .  A
C1683      H1688   1.083       .  S
C1684      C1689   1.498       .  S
C1684      C1685   1.412       .  A
C1685      C1686   1.408       .  A
C1685      N1690   1.438       .  S
C1686      H1691   1.084       .  S
N1687      H1707   1.045       .  S
N1687      H1708   1.046       .  S
C1689      C1692   1.402       .  A
C1689      C1696   1.414       .  A
N1690      H1705   1.045       .  S
N1690      H1706   1.046       .  S
C1692      C1693   1.407       .  A
C1692      H1697   1.084       .  S
C1693      C1694   1.419       .  A
C1693      N1698   1.438       .  S
C1694      C1695   1.407       .  A
C1695      C1696   1.415       .  A
C1695      H1699   1.083       .  S
C1696      N1700   1.437       .  S
N1698      H1701   1.046       .  S
N1698      H1702   1.046       .  S
N1700      H1703   1.046       .  S
N1700      H1704   1.045       .  S
C1709      C1710   1.416       .  A
C1709      C1714   1.411       .  A
C1710      C1711   1.413       .  A
C1710      N1715   1.437       .  S
C1711      C1712   1.406       .  A
C1711      H1716   1.084       .  S
C1712      C1717   1.488       .  S
C1712      C1713   1.406       .  A
C1713      C1714   1.403       .  A
C1713      N1718   1.438       .  S
C1714      H1719   1.083       .  S
N1715      H1735   1.046       .  S
N1715      H1736   1.046       .  S
C1717      C1720   1.407       .  A
C1717      C1724   1.406       .  A
N1718      H1733   1.046       .  S
N1718      H1734   1.046       .  S
C1720      C1721   1.413       .  A
C1720      H1725   1.084       .  S
C1721      C1722   1.414       .  A
C1721      N1726   1.437       .  S
C1722      C1723   1.411       .  A
C1723      C1724   1.402       .  A
C1723      H1727   1.083       .  S
C1724      N1728   1.439       .  S
N1726      H1729   1.046       .  S
N1726      H1730   1.045       .  S
N1728      H1731   1.046       .  S
N1728      H1732   1.045       .  S
C1737      C1738   1.409       .  A
C1737      C1742   1.402       .  A
C1738      C1739   1.407       .  A
C1738      N1743   1.438       .  S
C1739      C1740   1.405       .  A
C1739      H1744   1.084       .  S
C1740      C1745   1.490       .  S
C1740      C1741   1.412       .  A
C1741      C1742   1.410       .  A
C1741      N1746   1.437       .  S
C1742      H1747   1.084       .  S
N1743      H1763   1.046       .  S
N1743      H1764   1.046       .  S
C1745      C1748   1.407       .  A
C1745      C1752   1.408       .  A
N1746      H1761   1.046       .  S
N1746      H1762   1.046       .  S
C1748      C1749   1.414       .  A
C1748      H1753   1.083       .  S
C1749      C1750   1.412       .  A
C1749      N1754   1.437       .  S
C1750      C1751   1.407       .  A
C1751      C1752   1.404       .  A
C1751      H1755   1.084       .  S
C1752      N1756   1.438       .  S
N1754      H1757   1.045       .  S
N1754      H1758   1.045       .  S
N1756      H1759   1.046       .  S
N1756      H1760   1.046       .  S
C1765      C1766   1.417       .  A
C1765      C1770   1.409       .  A
C1766      C1767   1.413       .  A
C1766      N1771   1.437       .  S
C1767      C1768   1.404       .  A
C1767      H1772   1.084       .  S
C1768      C1773   1.489       .  S
C1768      C1769   1.408       .  A
C1769      C1770   1.404       .  A
C1769      N1774   1.438       .  S
C1770      H1775   1.083       .  S
N1771      H1791   1.045       .  S
N1771      H1792   1.046       .  S
C1773      C1776   1.401       .  A
C1773      C1780   1.412       .  A
N1774      H1789   1.046       .  S
N1774      H1790   1.045       .  S
C1776      C1777   1.404       .  A
C1776      H1781   1.084       .  S
C1777      C1778   1.414       .  A
C1777      N1782   1.438       .  S
C1778      C1779   1.406       .  A
C1779      C1780   1.412       .  A
C1779      H1783   1.084       .  S
C1780      N1784   1.437       .  S
N1782      H1785   1.045       .  S
N1782      H1786   1.046       .  S
N1784      H1787   1.045       .  S
N1784      H1788   1.046       .  S
C1793      C1794   1.407       .  A
C1793      C1798   1.402       .  A
C1794      C1795   1.406       .  A
C1794      N1799   1.438       .  S
C1795      C1796   1.406       .  A
C1795      H1800   1.084       .  S
C1796      C1801   1.480       .  S
C1796      C1797   1.409       .  A
C1797      C1798   1.400       .  A
C1797      N1802   1.438       .  S
C1798      H1803   1.084       .  S
N1799      H1819   1.046       .  S
N1799      H1820   1.046       .  S
C1801      C1804   1.406       .  A
C1801      C1808   1.406       .  A
N1802      H1817   1.046       .  S
N1802      H1818   1.046       .  S
C1804      C1805   1.408       .  A
C1804      H1809   1.084       .  S
C1805      C1806   1.411       .  A
C1805      N1810   1.437       .  S
C1806      C1807   1.408       .  A
C1807      C1808   1.399       .  A
C1807      H1811   1.084       .  S
C1808      N1812   1.439       .  S
N1810      H1813   1.046       .  S
N1810      H1814   1.045       .  S
N1812      H1815   1.046       .  S
N1812      H1816   1.046       .  S
C1821      C1822   1.417       .  A
C1821      C1826   1.405       .  A
C1822      C1823   1.406       .  A
C1822      N1827   1.438       .  S
C1823      C1824   1.399       .  A
C1823      H1828   1.084       .  S
C1824      C1829   1.484       .  S
C1824      C1825   1.411       .  A
C1825      C1826   1.409       .  A
C1825      N1830   1.437       .  S
C1826      H1831   1.083       .  S
N1827      H1847   1.046       .  S
N1827      H1848   1.046       .  S
C1829      C1832   1.395       .  A
C1829      C1836   1.412       .  A
N1830      H1845   1.045       .  S
N1830      H1846   1.046       .  S
C1832      C1833   1.401       .  A
C1832      H1837   1.084       .  S
C1833      C1834   1.422       .  A
C1833      N1838   1.439       .  S
C1834      C1835   1.406   1_545  A
C1835      C1836   1.413   1_565  A
C1835      H1839   1.083       .  S
C1836      N1840   1.437   1_545  S
N1838      H1841   1.046       .  S
N1838      H1842   1.045       .  S
N1840      H1843   1.046       .  S
N1840      H1844   1.045       .  S
C1849      C1850   1.416       .  A
C1849      C1854   1.404       .  A
C1850      C1851   1.406       .  A
C1850      N1855   1.438       .  S
C1851      C1852   1.400       .  A
C1851      H1856   1.084       .  S
C1852      C1857   1.486       .  S
C1852      C1853   1.412       .  A
C1853      C1854   1.409       .  A
C1853      N1858   1.437       .  S
C1854      H1859   1.084       .  S
N1855      H1875   1.046       .  S
N1855      H1876   1.046       .  S
C1857      C1860   1.397       .  A
C1857      C1864   1.410       .  A
N1858      H1873   1.045       .  S
N1858      H1874   1.046       .  S
C1860      C1861   1.406       .  A
C1860      H1865   1.084       .  S
C1861      C1862   1.424       .  A
C1861      N1866   1.438       .  S
C1862      C1863   1.408       .  A
C1863      C1864   1.410       .  A
C1863      H1867   1.083       .  S
C1864      N1868   1.438       .  S
N1866      H1869   1.046       .  S
N1866      H1870   1.046       .  S
N1868      H1871   1.045       .  S
N1868      H1872   1.046       .  S
C1877      C1878   1.420       .  A
C1877      C1882   1.404       .  A
C1878      C1879   1.402       .  A
C1878      N1883   1.439       .  S
C1879      C1880   1.399       .  A
C1879      H1884   1.084       .  S
C1880      C1885   1.490       .  S
C1880      C1881   1.415       .  A
C1881      C1882   1.410       .  A
C1881      N1886   1.438       .  S
C1882      H1887   1.083       .  S
N1883      H1903   1.045       .  S
N1883      H1904   1.046       .  S
C1885      C1888   1.401       .  A
C1885      C1892   1.416       .  A
N1886      H1901   1.046       .  S
N1886      H1902   1.046       .  S
C1888      C1889   1.404       .  A
C1888      H1893   1.084       .  S
C1889      C1890   1.415       .  A
C1889      N1894   1.438       .  S
C1890      C1891   1.401       .  A
C1891      C1892   1.408       .  A
C1891      H1895   1.084       .  S
C1892      N1896   1.438       .  S
N1894      H1897   1.045       .  S
N1894      H1898   1.045       .  S
N1896      H1899   1.046       .  S
N1896      H1900   1.045       .  S
C1905      C1906   1.418   1_655  A
C1905      C1910   1.406       .  A
C1906      C1907   1.406       .  A
C1906      N1911   1.438       .  S
C1907      C1908   1.400   1_455  A
C1907      H1912   1.084       .  S
C1908      C1913   1.487   1_655  S
C1908      C1909   1.410       .  A
C1909      C1910   1.410       .  A
C1909      N1914   1.437       .  S
C1910      H1915   1.083       .  S
N1911      H1931   1.046       .  S
N1911      H1932   1.046       .  S
C1913      C1916   1.403   1_455  A
C1913      C1920   1.407       .  A
N1914      H1929   1.046       .  S
N1914      H1930   1.045       .  S
C1916      C1917   1.411       .  A
C1916      H1921   1.084       .  S
C1917      C1918   1.419   1_655  A
C1917      N1922   1.437       .  S
C1918      C1919   1.409       .  A
C1919      C1920   1.405       .  A
C1919      H1923   1.083       .  S
C1920      N1924   1.438       .  S
N1922      H1925   1.046       .  S
N1922      H1926   1.045       .  S
N1924      H1927   1.046       .  S
N1924      H1928   1.045       .  S
C1933      C1934   1.414       .  A
C1933      C1938   1.403       .  A
C1934      C1935   1.402       .  A
C1934      N1939   1.439       .  S
C1935      C1936   1.398       .  A
C1935      H1940   1.084       .  S
C1936      C1941   1.477       .  S
C1936      C1937   1.410       .  A
C1937      C1938   1.409       .  A
C1937      N1942   1.437       .  S
C1938      H1943   1.084       .  S
N1939      H1959   1.046       .  S
N1939      H1960   1.045       .  S
C1941      C1944   1.402       .  A
C1941      C1948   1.403       .  A
N1942      H1957   1.046       .  S
N1942      H1958   1.045       .  S
C1944      C1945   1.410       .  A
C1944      H1949   1.084       .  S
C1945      C1946   1.417       .  A
C1945      N1950   1.437       .  S
C1946      C1947   1.410       .  A
C1947      C1948   1.402       .  A
C1947      H1951   1.083       .  S
C1948      N1952   1.438       .  S
N1950      H1953   1.046       .  S
N1950      H1954   1.045       .  S
N1952      H1955   1.046       .  S
N1952      H1956   1.045       .  S
C1961      C1962   1.410       .  A
C1961      C1966   1.406       .  A
C1962      C1963   1.410       .  A
C1962      N1967   1.437       .  S
C1963      C1964   1.407       .  A
C1963      H1968   1.084       .  S
C1964      C1969   1.485       .  S
C1964      C1965   1.407       .  A
C1965      C1966   1.401       .  A
C1965      N1970   1.438       .  S
C1966      H1971   1.084       .  S
N1967      H1987   1.046       .  S
N1967      H1988   1.046       .  S
C1969      C1972   1.404       .  A
C1969      C1976   1.408       .  A
N1970      H1985   1.045       .  S
N1970      H1986   1.046       .  S
C1972      C1973   1.408       .  A
C1972      H1977   1.084   1_655  S
C1973      C1974   1.413       .  A
C1973      N1978   1.437   1_655  S
C1974      C1975   1.406       .  A
C1975      C1976   1.403       .  A
C1975      H1979   1.084       .  S
C1976      N1980   1.438       .  S
N1978      H1981   1.045       .  S
N1978      H1982   1.046       .  S
N1980      H1983   1.046       .  S
N1980      H1984   1.046       .  S
C1989      C1990   1.407       .  A
C1989      C1994   1.404       .  A
C1990      C1991   1.407       .  A
C1990      N1995   1.437       .  S
C1991      C1992   1.404       .  A
C1991      H1996   1.084       .  S
C1992      C1997   1.475       .  S
C1992      C1993   1.405       .  A
C1993      C1994   1.402       .  A
C1993      N1998   1.438       .  S
C1994      H1999   1.084       .  S
N1995      H2015   1.046       .  S
N1995      H2016   1.045       .  S
C1997      C2000   1.405       .  A
C1997      C2004   1.403       .  A
N1998      H2013   1.046       .  S
N1998      H2014   1.045       .  S
C2000      C2001   1.409       .  A
C2000      H2005   1.084       .  S
C2001      C2002   1.410       .  A
C2001      N2006   1.437       .  S
C2002      C2003   1.406       .  A
C2003      C2004   1.401       .  A
C2003      H2007   1.084       .  S
C2004      N2008   1.438       .  S
N2006      H2009   1.046       .  S
N2006      H2010   1.045       .  S
N2008      H2011   1.045       .  S
N2008      H2012   1.045       .  S
C2017      C2018   1.417       .  A
C2017      C2022   1.404       .  A
C2018      C2019   1.402       .  A
C2018      N2023   1.439       .  S
C2019      C2020   1.400       .  A
C2019      H2024   1.084       .  S
C2020      C2025   1.487       .  S
C2020      C2021   1.413       .  A
C2021      C2022   1.408       .  A
C2021      N2026   1.438   1_655  S
C2022      H2027   1.083       .  S
N2023      H2043   1.046       .  S
N2023      H2044   1.046       .  S
C2025      C2028   1.405       .  A
C2025      C2032   1.413       .  A
N2026      H2041   1.046       .  S
N2026      H2042   1.046   1_455  S
C2028      C2029   1.405       .  A
C2028      H2033   1.084   1_655  S
C2029      C2030   1.407       .  A
C2029      N2034   1.437   1_655  S
C2030      C2031   1.401       .  A
C2031      C2032   1.405       .  A
C2031      H2035   1.084       .  S
C2032      N2036   1.438       .  S
N2034      H2037   1.046       .  S
N2034      H2038   1.046       .  S
N2036      H2039   1.046       .  S
N2036      H2040   1.046       .  S
C2045      C2046   1.416       .  A
C2045      C2050   1.408       .  A
C2046      C2047   1.412       .  A
C2046      N2051   1.437       .  S
C2047      C2048   1.404       .  A
C2047      H2052   1.084       .  S
C2048      C2053   1.484       .  S
C2048      C2049   1.406       .  A
C2049      C2050   1.403       .  A
C2049      N2054   1.438       .  S
C2050      H2055   1.083       .  S
N2051      H2071   1.046       .  S
N2051      H2072   1.045       .  S
C2053      C2056   1.399       .  A
C2053      C2060   1.410       .  A
N2054      H2069   1.046       .  S
N2054      H2070   1.045       .  S
C2056      C2057   1.405       .  A
C2056      H2061   1.084       .  S
C2057      C2058   1.417       .  A
C2057      N2062   1.438       .  S
C2058      C2059   1.406       .  A
C2059      C2060   1.410       .  A
C2059      H2063   1.083       .  S
C2060      N2064   1.437       .  S
N2062      H2065   1.045       .  S
N2062      H2066   1.046       .  S
N2064      H2067   1.045       .  S
N2064      H2068   1.046       .  S
C2073      C2074   1.409       .  A
C2073      C2078   1.407       .  A
C2074      C2075   1.409       .  A
C2074      N2079   1.437       .  S
C2075      C2076   1.408       .  A
C2075      H2080   1.084       .  S
C2076      C2081   1.483       .  S
C2076      C2077   1.406       .  A
C2077      C2078   1.399       .  A
C2077      N2082   1.439       .  S
C2078      H2083   1.084       .  S
N2079      H2099   1.046       .  S
N2079      H2100   1.046       .  S
C2081      C2084   1.405       .  A
C2081      C2088   1.410       .  A
N2082      H2097   1.046       .  S
N2082      H2098   1.046       .  S
C2084      C2085   1.407       .  A
C2084      H2089   1.084       .  S
C2085      C2086   1.409       .  A
C2085      N2090   1.437       .  S
C2086      C2087   1.402       .  A
C2087      C2088   1.402       .  A
C2087      H2091   1.084       .  S
C2088      N2092   1.438       .  S
N2090      H2093   1.045       .  S
N2090      H2094   1.045       .  S
N2092      H2095   1.046       .  S
N2092      H2096   1.046       .  S
C2101      C2102   1.415       .  A
C2101      C2106   1.409   1_565  A
C2102      C2103   1.413   1_565  A
C2102      N2107   1.437       .  S
C2103      C2104   1.406       .  A
C2103      H2108   1.084       .  S
C2104      C2109   1.485       .  S
C2104      C2105   1.405       .  A
C2105      C2106   1.400       .  A
C2105      N2110   1.439       .  S
C2106      H2111   1.083       .  S
N2107      H2127   1.045       .  S
N2107      H2128   1.046       .  S
C2109      C2112   1.403       .  A
C2109      C2116   1.410       .  A
N2110      H2125   1.045       .  S
N2110      H2126   1.046       .  S
C2112      C2113   1.401       .  A
C2112      H2117   1.084       .  S
C2113      C2114   1.415       .  A
C2113      N2118   1.439       .  S
C2114      C2115   1.403       .  A
C2115      C2116   1.407       .  A
C2115      H2119   1.083       .  S
C2116      N2120   1.437       .  S
N2118      H2121   1.046       .  S
N2118      H2122   1.044       .  S
N2120      H2123   1.046       .  S
N2120      H2124   1.046       .  S
C2129      C2130   1.410       .  A
C2129      C2134   1.401   1_545  A
C2130      C2131   1.408       .  A
C2130      N2135   1.438       .  S
C2131      C2132   1.404       .  A
C2131      H2136   1.084       .  S
C2132      C2137   1.494       .  S
C2132      C2133   1.415       .  A
C2133      C2134   1.411   1_545  A
C2133      N2138   1.437   1_545  S
C2134      H2139   1.084       .  S
N2135      H2155   1.045       .  S
N2135      H2156   1.046       .  S
C2137      C2140   1.406       .  A
C2137      C2144   1.413       .  A
N2138      H2153   1.046       .  S
N2138      H2154   1.045       .  S
C2140      C2141   1.409       .  A
C2140      H2145   1.084       .  S
C2141      C2142   1.409       .  A
C2141      N2146   1.437       .  S
C2142      C2143   1.404       .  A
C2143      C2144   1.410       .  A
C2143      H2147   1.083       .  S
C2144      N2148   1.438       .  S
N2146      H2149   1.046       .  S
N2146      H2150   1.046       .  S
N2148      H2151   1.046       .  S
N2148      H2152   1.045       .  S
C2157      C2158   1.410       .  A
C2157      C2162   1.401       .  A
C2158      C2159   1.404       .  A
C2158      N2163   1.438       .  S
C2159      C2160   1.400       .  A
C2159      H2164   1.084       .  S
C2160      C2165   1.479       .  S
C2160      C2161   1.412       .  A
C2161      C2162   1.408       .  A
C2161      N2166   1.438       .  S
C2162      H2167   1.084       .  S
N2163      H2183   1.045       .  S
N2163      H2184   1.046       .  S
C2165      C2168   1.396       .  A
C2165      C2172   1.412       .  A
N2166      H2181   1.046       .  S
N2166      H2182   1.046       .  S
C2168      C2169   1.400   1_545  A
C2168      H2173   1.084   1_545  S
C2169      C2170   1.417   1_565  A
C2169      N2174   1.433       .  S
C2170      C2171   1.404       .  A
C2171      C2172   1.410       .  A
C2171      H2175   1.083       .  S
C2172      N2176   1.437       .  S
N2174      H2177   1.046       .  S
N2174      H2178   1.046       .  S
N2176      H2179   1.046       .  S
N2176      H2180   1.045       .  S
C2185      C2186   1.411       .  A
C2185      C2190   1.404       .  A
C2186      C2187   1.408       .  A
C2186      N2191   1.438       .  S
C2187      C2188   1.405       .  A
C2187      H2192   1.084       .  S
C2188      C2193   1.486       .  S
C2188      C2189   1.409       .  A
C2189      C2190   1.405       .  A
C2189      N2194   1.438       .  S
C2190      H2195   1.084       .  S
N2191      H2211   1.045       .  S
N2191      H2212   1.045       .  S
C2193      C2196   1.406       .  A
C2193      C2200   1.405       .  A
N2194      H2209   1.046       .  S
N2194      H2210   1.045       .  S
C2196      C2197   1.412       .  A
C2196      H2201   1.084       .  S
C2197      C2198   1.415       .  A
C2197      N2202   1.437       .  S
C2198      C2199   1.411       .  A
C2199      C2200   1.402       .  A
C2199      H2203   1.083       .  S
C2200      N2204   1.438       .  S
N2202      H2205   1.046       .  S
N2202      H2206   1.046       .  S
N2204      H2207   1.045       .  S
N2204      H2208   1.046       .  S
C2213      C2214   1.412       .  A
C2213      C2218   1.408       .  A
C2214      C2215   1.409       .  A
C2214      N2219   1.437       .  S
C2215      C2216   1.407       .  A
C2215      H2220   1.084       .  S
C2216      C2221   1.489       .  S
C2216      C2217   1.409       .  A
C2217      C2218   1.403       .  A
C2217      N2222   1.439       .  S
C2218      H2223   1.084       .  S
N2219      H2239   1.046       .  S
N2219      H2240   1.046       .  S
C2221      C2224   1.406       .  A
C2221      C2228   1.413       .  A
N2222      H2237   1.046   1_565  S
N2222      H2238   1.046   1_565  S
C2224      C2225   1.407       .  A
C2224      H2229   1.083       .  S
C2225      C2226   1.408       .  A
C2225      N2230   1.438       .  S
C2226      C2227   1.400       .  A
C2227      C2228   1.405       .  A
C2227      H2231   1.084       .  S
C2228      N2232   1.438       .  S
N2230      H2233   1.045       .  S
N2230      H2234   1.045       .  S
N2232      H2235   1.046       .  S
N2232      H2236   1.045       .  S
