geometry optimzed in LAMMPS
_audit_creation_date              2020-12-01 
_audit_creation_method            'lammps2cif' 
_symmetry_space_group_name_H-M    'P1' 
_symmetry_Int_Tables_number       1 
_symmetry_cell_setting            triclinic 
loop_ 
_symmetry_equiv_pos_as_xyz 
  x,y,z 
_cell_length_a                    58.12682231 
_cell_length_b                    47.74129030786169 
_cell_length_c                    27.566981240701963 
_cell_angle_alpha                 90.02268293850985 
_cell_angle_beta                  89.91581705903866 
_cell_angle_gamma                 90.23320371764757 
loop_ 
_atom_site_label 
_atom_site_type_symbol 
_atom_site_fract_x 
_atom_site_fract_y 
_atom_site_fract_z 
_atom_site_charge 
O1          O  0.33964076  0.87824459  0.65856405    -0.85500
O2          O  0.36373487  0.83361364  0.69448893    -0.82500
C3          C  0.37188813  0.80920205  0.69503911     0.98000
O4          O  0.38109660  0.79944838  0.65751227    -0.82500
O5          O  0.34283037  0.79031903  0.59884459    -0.85200
C6          C  0.32693323  0.79600771  0.56921339     1.02500
O7          O  0.32952657  0.81575053  0.53943238    -0.78000
O8          O  0.31854067  0.85676833  0.60358755    -0.78100
C9          C  0.32017959  0.86952926  0.64355692     1.02500
O10         O  0.38044264  0.89537961  0.60326958    -0.85500
O11         O  0.40507967  0.85092304  0.64030905    -0.82500
C12         C  0.41604672  0.83733970  0.60779293     0.98000
O13         O  0.40539915  0.82188895  0.57804549    -0.82600
O14         O  0.37073763  0.80579102  0.51738177    -0.85200
C15         C  0.37124628  0.82497046  0.48602658     1.02500
O16         O  0.36438734  0.84937452  0.49676186    -0.78000
O17         O  0.35012992  0.89383982  0.55660392    -0.78100
C18         C  0.36742084  0.90687316  0.57265389     1.02400
Cr19       Cr  0.37161004  0.86286842  0.64514572     1.93700
Cr20       Cr  0.37404845  0.80716949  0.58862212     1.93200
Cr21       Cr  0.34241539  0.85332868  0.55259135     1.39100
O22         O  0.36296346  0.84153318  0.59544822    -1.23200
O23         O  0.63660969  0.89880497  0.61640207    -0.85500
O24         O  0.60168443  0.86009905  0.62201178    -0.82500
C25         C  0.59066217  0.83778890  0.61432736     0.98000
O26         O  0.60131207  0.81475001  0.61017617    -0.82500
O27         O  0.62326624  0.81921042  0.52211821    -0.85200
C28         C  0.63849315  0.82303210  0.49042361     1.02500
O29         O  0.65704534  0.83541791  0.50207232    -0.78000
O30         O  0.64569556  0.88645458  0.54223508    -0.78100
C31         C  0.63842070  0.90462139  0.57139465     1.02500
O32         O  0.66352590  0.86266624  0.68048817    -0.85500
O33         O  0.62695123  0.82642039  0.69161724    -0.82500
C34         C  0.63524037  0.80179598  0.68883699     0.98000
O35         O  0.64365306  0.79332716  0.64957911    -0.82600
O36         O  0.66393587  0.79305534  0.56037075    -0.85200
C37         C  0.68417865  0.80240839  0.56663724     1.02500
O38         O  0.68723119  0.82685600  0.58230083    -0.78000
O39         O  0.68047460  0.87984471  0.61637940    -0.78100
C40         C  0.68063741  0.87467736  0.66155715     1.02400
Cr41       Cr  0.63300251  0.86070444  0.64923140     1.93700
Cr42       Cr  0.63371236  0.80761197  0.58670566     1.93200
Cr43       Cr  0.66592150  0.85629257  0.56332564     1.39100
O44         O  0.64410334  0.84156345  0.59979526    -1.23200
O45         O  0.66609157  0.62762467  0.15911825    -0.85500
O46         O  0.64494276  0.67448688  0.19485686    -0.82500
C47         C  0.63777828  0.69940784  0.19440925     0.98000
O48         O  0.62875728  0.70914515  0.15666598    -0.82500
O49         O  0.66705102  0.71698376  0.09690519    -0.85200
C50         C  0.68310057  0.71000924  0.06825916     1.02500
O51         O  0.68031880  0.68966392  0.04002052    -0.78000
O52         O  0.68862503  0.65020166  0.10862209    -0.78100
C53         C  0.68579298  0.63716028  0.14800676     1.02500
O54         O  0.62491689  0.61476343  0.10191744    -0.85500
O55         O  0.60325214  0.66048282  0.14283465    -0.82500
C56         C  0.59250416  0.67380802  0.11019670     0.98000
O57         O  0.60322119  0.68758110  0.07810119    -0.82600
O58         O  0.63844937  0.70118321  0.01616221    -0.85200
C59         C  0.63912406  0.68158092  0.98551912     1.02500
O60         O  0.64539120  0.65718136  0.99785595    -0.78000
O61         O  0.65714187  0.61343072  0.06123647    -0.78100
C62         C  0.63808313  0.60253521  0.07224432     1.02400
Cr63       Cr  0.63549505  0.64581491  0.14570192     1.93700
Cr64       Cr  0.63521086  0.70106420  0.08767149     1.93200
Cr65       Cr  0.66614278  0.65327006  0.05526252     1.39100
O66         O  0.64528727  0.66647611  0.09601985    -1.23200
O67         O  0.37282062  0.60831743  0.11698487    -0.85500
O68         O  0.40849335  0.64689499  0.12256473    -0.82500
C69         C  0.41900943  0.66985149  0.11675032     0.98000
O70         O  0.40793661  0.69258781  0.11383258    -0.82500
O71         O  0.38445174  0.69159874  0.02685203    -0.85200
C72         C  0.36875369  0.68771008  0.99606328     1.02500
O73         O  0.35061249  0.67465490  0.00865558    -0.78000
O74         O  0.36269327  0.62229049  0.04440188    -0.78100
C75         C  0.37034110  0.60343592  0.07184719     1.02500
O76         O  0.34737468  0.64316021  0.18598576    -0.85500
O77         O  0.38492310  0.67811105  0.19614784    -0.82500
C78         C  0.37591970  0.70224979  0.19678016     0.98000
O79         O  0.36656837  0.71213049  0.15958821    -0.82600
O80         O  0.34498231  0.71539193  0.07239476    -0.85200
C81         C  0.32486430  0.70618468  0.08005713     1.02500
O82         O  0.32170759  0.68113935  0.09229259    -0.78000
O83         O  0.32940593  0.62767893  0.12194350    -0.78100
C84         C  0.32960771  0.63254761  0.16720188     1.02400
Cr85       Cr  0.37747185  0.64542281  0.15195773     1.93700
Cr86       Cr  0.37538410  0.70031009  0.09414928     1.93200
Cr87       Cr  0.34289783  0.65223102  0.06927942     1.39100
O88         O  0.36549272  0.66589921  0.10483811    -1.23200
O89         O  0.16027624  0.86195368  0.83921125    -0.85500
O90         O  0.12445519  0.82471333  0.83111947    -0.82500
C91         C  0.13420082  0.80088563  0.83114619     0.98000
O92         O  0.14363263  0.79200345  0.86908609    -0.82500
O93         O  0.16588408  0.79108295  0.95658589    -0.85200
C94         C  0.18559965  0.80176261  0.94909628     1.02500
O95         O  0.18729833  0.82593556  0.93197864    -0.78000
O96         O  0.17878711  0.87870596  0.90168179    -0.78100
C97         C  0.17793040  0.87365353  0.85650823     1.02500
O98         O  0.13451743  0.89599292  0.90799174    -0.85500
O99         O  0.10043734  0.85611317  0.90631446    -0.82500
C100        C  0.09022966  0.83326405  0.91443120     0.98000
O101        O  0.10144812  0.81049911  0.91459427    -0.82600
O102        O  0.12529083  0.81428421  0.00041204    -0.85200
C103        C  0.14096552  0.81937386  0.03055403     1.02500
O104        O  0.15902964  0.83230941  0.01708015    -0.78000
O105        O  0.14603665  0.88360389  0.98058250    -0.78100
C106        C  0.13768247  0.90166068  0.95262370     1.02400
Cr107      Cr  0.13075442  0.85843102  0.87439322     1.93700
Cr108      Cr  0.13463471  0.80447733  0.93391635     1.93200
Cr109      Cr  0.16607492  0.85420173  0.95556996     1.39100
O110        O  0.14362411  0.83914427  0.92148910    -1.23200
O111        O  0.87289497  0.90443305  0.89713052    -0.85500
O112        O  0.90749767  0.86489243  0.89009909    -0.82500
C113        C  0.91761250  0.84199032  0.89792479     0.98000
O114        O  0.90630019  0.81926356  0.89947436    -0.82500
O115        O  0.88571824  0.82214669  0.98823678    -0.85200
C116        C  0.87147408  0.82713621  0.02142458     1.02500
O117        O  0.85300727  0.84010891  0.01133201    -0.78000
O118        O  0.86437184  0.89152521  0.97120729    -0.78100
C119        C  0.87141337  0.90999847  0.94221539     1.02500
O120        O  0.84511571  0.86918615  0.83333480    -0.85500
O121        O  0.88129902  0.83296495  0.81950882    -0.82500
C122        C  0.87203402  0.80877430  0.82080179     0.98000
O123        O  0.86315134  0.80012457  0.85962116    -0.82600
O124        O  0.84408676  0.79831411  0.95078355    -0.85200
C125        C  0.82389604  0.80793132  0.94674372     1.02500
O126        O  0.82086855  0.83269876  0.93303008    -0.78000
O127        O  0.82850162  0.88528956  0.89871433    -0.78100
C128        C  0.82780195  0.87991326  0.85360656     1.02400
Cr129      Cr  0.87588327  0.86659816  0.86350435     1.93700
Cr130      Cr  0.87412109  0.81253251  0.92335190     1.93200
Cr131      Cr  0.84338893  0.86156921  0.95083204     1.39100
O132        O  0.86458561  0.84698057  0.91266671    -1.23200
O133        O  0.84633129  0.64494092  0.33246875    -0.85500
O134        O  0.88331623  0.68093742  0.32038392    -0.82500
C135        C  0.87524342  0.70563273  0.32233378     0.98000
O136        O  0.86622070  0.71423042  0.36106199    -0.82500
O137        O  0.84479228  0.71415872  0.45017736    -0.85200
C138        C  0.82474616  0.70408842  0.44423937     1.02500
O139        O  0.82195910  0.67912178  0.43117878    -0.78000
O140        O  0.83046487  0.62691455  0.39727630    -0.78100
C141        C  0.82942089  0.63317562  0.35269716     1.02500
O142        O  0.87356475  0.60886864  0.39579380    -0.85500
O143        O  0.90818164  0.64807999  0.39006928    -0.82500
C144        C  0.91875262  0.67064100  0.39846380     0.98000
O145        O  0.90793764  0.69346348  0.40367844    -0.82600
O146        O  0.88573547  0.69030662  0.49134112    -0.85200
C147        C  0.87073405  0.68509146  0.52302577     1.02500
O148        O  0.85263684  0.67196350  0.51095449    -0.78000
O149        O  0.86570593  0.62117598  0.47048966    -0.78100
C150        C  0.87270035  0.60300541  0.44087847     1.02400
Cr151      Cr  0.87696887  0.64700876  0.36317334     1.93700
Cr152      Cr  0.87548489  0.70046418  0.42540698     1.93200
Cr153      Cr  0.84443405  0.65072077  0.44987384     1.39100
O154        O  0.86576854  0.66614019  0.41282524    -1.23200
O155        O  0.13604965  0.60474469  0.40563626    -0.85500
O156        O  0.10196145  0.64430450  0.40300989    -0.82500
C157        C  0.09169127  0.66720721  0.40910680     0.98000
O158        O  0.10299259  0.68991509  0.41204930    -0.82500
O159        O  0.12480349  0.68544704  0.50003427    -0.85200
C160        C  0.13965297  0.67995415  0.53177662     1.02500
O161        O  0.15810067  0.66761616  0.51942595    -0.78000
O162        O  0.14616541  0.61682157  0.47931878    -0.78100
C163        C  0.13814963  0.59888482  0.45048036     1.02500
O164        O  0.16291174  0.64087050  0.34003736    -0.85500
O165        O  0.12668843  0.67700534  0.33154016    -0.82500
C166        C  0.13635574  0.70094134  0.33258154     0.98000
O167        O  0.14550579  0.70958272  0.37111023    -0.82600
O168        O  0.16593810  0.70990705  0.46112061    -0.85200
C169        C  0.18595796  0.70010595  0.45465388     1.02500
O170        O  0.18838417  0.67598498  0.43761896    -0.78000
O171        O  0.18028114  0.62373535  0.40340309    -0.78100
C172        C  0.18052866  0.63004194  0.35868090     1.02400
Cr173      Cr  0.13276044  0.64289929  0.37341215     1.93700
Cr174      Cr  0.13543148  0.69626307  0.43489364     1.93200
Cr175      Cr  0.16660319  0.64693441  0.45751556     1.39100
O176        O  0.14476514  0.66194445  0.42209735    -1.23200
O177        O  0.66026236  0.36569544  0.82986077    -0.85500
O178        O  0.62403676  0.33027063  0.81489935    -0.82500
C179        C  0.63331204  0.30619885  0.81591728     0.98000
O180        O  0.64124015  0.29697978  0.85518492    -0.82500
O181        O  0.65993182  0.29497255  0.94682524    -0.85200
C182        C  0.68023137  0.30448385  0.94257653     1.02500
O183        O  0.68358298  0.32920108  0.92878719    -0.78000
O184        O  0.67689408  0.38200825  0.89510573    -0.78100
C185        C  0.67727551  0.37716586  0.84984091     1.02500
O186        O  0.63323044  0.40130722  0.89272274    -0.85500
O187        O  0.59798722  0.36258952  0.88464579    -0.82500
C188        C  0.58718334  0.33986871  0.89000663     0.98000
O189        O  0.59806408  0.31696786  0.89399054    -0.82600
O190        O  0.61857324  0.31919831  0.98394314    -0.85200
C191        C  0.63295319  0.32384969  0.01709929     1.02500
O192        O  0.65146959  0.33693782  0.00710525    -0.78000
O193        O  0.64113258  0.38886374  0.96730933    -0.78100
C194        C  0.63475743  0.40728491  0.93758755     1.02400
Cr195      Cr  0.62962034  0.36364436  0.85922993     1.93700
Cr196      Cr  0.63012411  0.30957908  0.91890546     1.93200
Cr197      Cr  0.66154378  0.35836619  0.94690300     1.39100
O198        O  0.64023895  0.34396009  0.90860950    -1.23200
O199        O  0.36731513  0.40153075  0.89557719    -0.85500
O200        O  0.40256767  0.36350786  0.88724203    -0.82500
C201        C  0.41348384  0.34091366  0.89182915     0.98000
O202        O  0.40279168  0.31774285  0.89456572    -0.82500
O203        O  0.38226282  0.31979838  0.98438030    -0.85200
C204        C  0.36769333  0.32335471  0.01747008     1.02500
O205        O  0.34902313  0.33592626  0.00800789    -0.78000
O206        O  0.35946474  0.38809438  0.96987680    -0.78100
C207        C  0.36603298  0.40679009  0.94074203     1.02500
O208        O  0.34000129  0.36571087  0.83196915    -0.85500
O209        O  0.37675812  0.33111258  0.81641568    -0.82500
C210        C  0.36834628  0.30648649  0.81769729     0.98000
O211        O  0.35996299  0.29701165  0.85637616    -0.82600
O212        O  0.34100410  0.29453883  0.94728596    -0.85200
C213        C  0.32059405  0.30361510  0.94360415     1.02500
O214        O  0.31700528  0.32835096  0.93024630    -0.78000
O215        O  0.32379138  0.38163461  0.89788913    -0.78100
C216        C  0.32265470  0.37568506  0.85316938     1.02400
Cr217      Cr  0.37091607  0.36419531  0.86117132     1.93700
Cr218      Cr  0.37079157  0.30979008  0.91976170     1.93200
Cr219      Cr  0.33901232  0.35771269  0.94878882     1.39100
O220        O  0.36034371  0.34393555  0.90995837    -1.23200
O221        O  0.34003644  0.14155865  0.33152906    -0.85500
O222        O  0.37710839  0.17714570  0.31584358    -0.82500
C223        C  0.36882893  0.20171141  0.31622352     0.98000
O224        O  0.36012364  0.21138123  0.35442742    -0.82500
O225        O  0.34102604  0.21562119  0.44527516    -0.85200
C226        C  0.32060231  0.20646428  0.44164952     1.02500
O227        O  0.31690441  0.18140606  0.42981668    -0.78000
O228        O  0.32377145  0.12764000  0.39912830    -0.78100
C229        C  0.32295208  0.13131301  0.35368328     1.02500
O230        O  0.36745196  0.10804607  0.39731289    -0.85500
O231        O  0.40249987  0.14636695  0.38806073    -0.82500
C232        C  0.41342865  0.16909999  0.39185767     0.98000
O233        O  0.40282563  0.19220730  0.39421639    -0.82600
O234        O  0.38199002  0.19175537  0.48477313    -0.85200
C235        C  0.36750113  0.18683668  0.51779771     1.02500
O236        O  0.34891732  0.17422886  0.50754849    -0.78000
O237        O  0.35960418  0.12202503  0.47111243    -0.78100
C238        C  0.36681965  0.10334637  0.44263928     1.02400
Cr239      Cr  0.37095937  0.14477661  0.36166521     1.93700
Cr240      Cr  0.37077048  0.20009767  0.41873647     1.93200
Cr241      Cr  0.33899450  0.15214648  0.44899196     1.39100
O242        O  0.36031820  0.16566164  0.40983433    -1.23200
O243        O  0.63194172  0.10492953  0.39318465    -0.85500
O244        O  0.59751103  0.14400789  0.38586747    -0.82500
C245        C  0.58704092  0.16669001  0.39331932     0.98000
O246        O  0.59817217  0.18948217  0.39711808    -0.82500
O247        O  0.62074391  0.18697860  0.48455142    -0.85200
C248        C  0.63609243  0.18323547  0.51593569     1.02500
O249        O  0.65418062  0.17004539  0.50424452    -0.78000
O250        O  0.64074297  0.11851044  0.46684308    -0.78100
C251        C  0.63315674  0.09994333  0.43854470     1.02500
O252        O  0.65939076  0.13982469  0.32694947    -0.85500
O253        O  0.62300423  0.17571088  0.31417511    -0.82500
C254        C  0.63141174  0.20034195  0.31519896     0.98000
O255        O  0.64003969  0.20975088  0.35372140    -0.82600
O256        O  0.66148541  0.21071547  0.44201638    -0.85200
C257        C  0.68153655  0.20078075  0.43646049     1.02500
O258        O  0.68425867  0.17593092  0.42279999    -0.78000
O259        O  0.67544067  0.12287737  0.39194886    -0.78100
C260        C  0.67640202  0.12844974  0.34703209     1.02400
Cr261      Cr  0.62883061  0.14242280  0.35842844     1.93700
Cr262      Cr  0.63074941  0.19666146  0.41828304     1.93200
Cr263      Cr  0.66193025  0.14766688  0.44385171     1.39100
O264        O  0.64035861  0.16229418  0.40681702    -1.23200
O265        O  0.83794474  0.37975280  0.65246520    -0.85500
O266        O  0.85913056  0.33279192  0.68886337    -0.82500
C267        C  0.86518714  0.30738042  0.68798813     0.98000
O268        O  0.87361214  0.29696860  0.65004955    -0.82500
O269        O  0.83760976  0.29059913  0.58652088    -0.85200
C270        C  0.82196393  0.29773547  0.55749164     1.02500
O271        O  0.82473828  0.31874893  0.53083126    -0.78000
O272        O  0.81554376  0.35632190  0.60284195    -0.78100
C273        C  0.81830870  0.37011846  0.64143256     1.02500
O274        O  0.87921020  0.39317451  0.59693242    -0.85500
O275        O  0.90091865  0.34777490  0.63845607    -0.82500
C276        C  0.91193682  0.33343295  0.60765713     0.98000
O277        O  0.90172974  0.31895061  0.57590169    -0.82600
O278        O  0.86790679  0.30876908  0.50902454    -0.85200
C279        C  0.86692119  0.32912034  0.47973170     1.02500
O280        O  0.85968301  0.35289459  0.49319398    -0.78000
O281        O  0.84657658  0.39508432  0.55830205    -0.78100
C282        C  0.86573319  0.40591278  0.56861118     1.02400
Cr283      Cr  0.86862986  0.36180402  0.64018378     1.93700
Cr284      Cr  0.86935341  0.30660186  0.58097507     1.93200
Cr285      Cr  0.83838048  0.35494769  0.54970241     1.39100
O286        O  0.85923744  0.34125550  0.59011652    -1.23200
O287        O  0.12898328  0.39664973  0.62407924    -0.85500
O288        O  0.09489834  0.35680496  0.62865780    -0.82500
C289        C  0.08473055  0.33411639  0.61946578     0.98000
O290        O  0.09587475  0.31160568  0.61256645    -0.82500
O291        O  0.11905973  0.31605275  0.52654364    -0.85200
C292        C  0.13454115  0.32081396  0.49586251     1.02500
O293        O  0.15226066  0.33455348  0.50859542    -0.78000
O294        O  0.13762385  0.38505478  0.54929784    -0.78100
C295        C  0.13005255  0.40281554  0.57910400     1.02500
O296        O  0.15620824  0.36057500  0.68798821    -0.85500
O297        O  0.11981912  0.32377208  0.69715284    -0.82500
C298        C  0.12841397  0.29938628  0.69452642     0.98000
O299        O  0.13795938  0.29151440  0.65605128    -0.82600
O300        O  0.16034793  0.29257011  0.56867415    -0.85200
C301        C  0.18021040  0.30328002  0.57514742     1.02500
O302        O  0.18201849  0.32810558  0.58976664    -0.78000
O303        O  0.17206952  0.37992638  0.62450506    -0.78100
C304        C  0.17293409  0.37328810  0.66902865     1.02400
Cr305      Cr  0.12593980  0.35823315  0.65594175     1.93700
Cr306      Cr  0.12888600  0.30544406  0.59220054     1.93200
Cr307      Cr  0.15925910  0.35600127  0.57044561     1.39100
O308        O  0.13782181  0.33983982  0.60612083    -1.23200
O309        O  0.16109044  0.13650740  0.18049438    -0.85500
O310        O  0.12569212  0.17352357  0.19695447    -0.82500
C311        C  0.13565561  0.19724720  0.19704791     0.98000
O312        O  0.14392388  0.20688613  0.15829109    -0.82500
O313        O  0.16274972  0.20997818  0.06723734    -0.85200
C314        C  0.18270998  0.19952863  0.07040431     1.02500
O315        O  0.18515873  0.17418365  0.08139088    -0.78000
O316        O  0.17657942  0.12131695  0.11305109    -0.78100
C317        C  0.17775044  0.12543770  0.15840828     1.02500
O318        O  0.13240147  0.10388161  0.11577478    -0.85500
O319        O  0.09871820  0.14378881  0.12528300    -0.82500
C320        C  0.08866045  0.16700092  0.12101834     0.98000
O321        O  0.10028838  0.18949558  0.11881762    -0.82600
O322        O  0.12045368  0.18799680  0.02834153    -0.85200
C323        C  0.13425823  0.18176268  0.99480480     1.02500
O324        O  0.15256284  0.16864046  0.00458642    -0.78000
O325        O  0.14007661  0.11761411  0.04183637    -0.78100
C326        C  0.13303827  0.09901755  0.07050148     1.02400
Cr327      Cr  0.13026345  0.14084058  0.15112142     1.93700
Cr328      Cr  0.13246461  0.19596573  0.09403946     1.93200
Cr329      Cr  0.16196477  0.14636341  0.06311606     1.39100
O330        O  0.14150823  0.16107466  0.10272212    -1.23200
O331        O  0.86894496  0.11205701  0.11458899    -0.85500
O332        O  0.90394670  0.15041143  0.12211414    -0.82500
C333        C  0.91490273  0.17269341  0.11380451     0.98000
O334        O  0.90434043  0.19561404  0.10684389    -0.82500
O335        O  0.88141990  0.19233810  0.02019220    -0.85200
C336        C  0.86596723  0.18821296  0.98925573     1.02500
O337        O  0.84755298  0.17587083  0.00190753    -0.78000
O338        O  0.85985132  0.12466439  0.04043577    -0.78100
C339        C  0.86737481  0.10652044  0.06939454     1.02500
O340        O  0.84189760  0.14828277  0.17932065    -0.85500
O341        O  0.87895054  0.18387407  0.19102191    -0.82500
C342        C  0.87114232  0.20865791  0.18788310     0.98000
O343        O  0.86227797  0.21690560  0.14910528    -0.82600
O344        O  0.84068812  0.21786429  0.06205807    -0.85200
C345        C  0.82058707  0.20809761  0.06943776     1.02500
O346        O  0.81796934  0.18329549  0.08363478    -0.78000
O347        O  0.82561483  0.13016493  0.11543841    -0.78100
C348        C  0.82490849  0.13622241  0.16014518     1.02400
Cr349      Cr  0.87253183  0.14990287  0.14830827     1.93700
Cr350      Cr  0.87157178  0.20314863  0.08567027     1.93200
Cr351      Cr  0.83947676  0.15440111  0.06283892     1.39100
O352        O  0.86149410  0.16909571  0.09877387    -1.23200
C353        C  0.97780827  0.18718555  0.08488654    -0.27700
C354        C  0.98892641  0.16905238  0.11732136     0.01900
C355        C  0.97559026  0.15230407  0.14869308     0.30000
C356        C  0.95152101  0.15372679  0.14700482    -0.19500
C357        C  0.94036610  0.17185629  0.11451727    -0.28900
C358        C  0.95374302  0.18858578  0.08318750     0.44000
C359        C  0.01443654  0.16822956  0.11846542     0.05200
O360        O  0.98596145  0.13559024  0.18270338    -0.57400
H361        H  0.94153893  0.14092483  0.17182051     0.18100
O362        O  0.94349568  0.20594377  0.05009847    -0.64200
H363        H  0.98786374  0.20008891  0.06037037     0.16600
C364        C  0.02652433  0.14314288  0.11031899     0.28800
C365        C  0.05060196  0.14305740  0.11138500    -0.25100
C366        C  0.06312206  0.16786160  0.11992220    -0.24300
C367        C  0.05093184  0.19303550  0.12746807     0.40300
C368        C  0.02684431  0.19301601  0.12678201    -0.26800
O369        O  0.01500878  0.11862448  0.10075290    -0.58700
H370        H  0.05949349  0.12349594  0.10497588     0.15900
O371        O  0.06228765  0.21764246  0.13715438    -0.60100
H372        H  0.01777472  0.21245854  0.13319189     0.14400
H373        H  0.94072062  0.19407498  0.02114066     0.46200
H374        H  0.01062203  0.11975900  0.06606241     0.41600
H375        H  0.06335802  0.22745845  0.10552208     0.45000
H376        H  0.98271874  0.11606343  0.17241684     0.36500
C377        C  0.11413738  0.27563012  0.39039908    -0.27700
C378        C  0.13510049  0.26895363  0.36782658     0.01900
C379        C  0.15548397  0.28151995  0.38537875     0.30000
C380        C  0.15469849  0.30015004  0.42459743    -0.19500
C381        C  0.13386343  0.30608060  0.44832750    -0.28900
C382        C  0.11341831  0.29374958  0.43044730     0.44000
C383        C  0.13556893  0.24968960  0.32515449     0.05200
O384        O  0.17644934  0.27499127  0.36554461    -0.57400
H385        H  0.17074002  0.30869836  0.43818568     0.18100
O386        O  0.09267725  0.29858768  0.45259968    -0.64200
H387        H  0.09819167  0.26675702  0.37700078     0.16600
C388        C  0.12404455  0.22357747  0.32521397     0.28800
C389        C  0.12472296  0.20629451  0.28391434    -0.25100
C390        C  0.13663983  0.21466089  0.24186130    -0.24300
C391        C  0.14859566  0.24052747  0.24251434     0.40300
C392        C  0.14769034  0.25777931  0.28340011    -0.26800
O393        O  0.11265172  0.21440053  0.36588533    -0.58700
H394        H  0.11559198  0.18647209  0.28469139     0.15900
O395        O  0.16093310  0.24961415  0.20304703    -0.60100
H396        H  0.15636711  0.27788969  0.28211998     0.14400
H397        H  0.08643742  0.31546213  0.43641045     0.46200
H398        H  0.09606777  0.21509831  0.35755713     0.41600
H399        H  0.17675249  0.24249550  0.20816258     0.45000
H400        H  0.18228224  0.25914628  0.38519698     0.36500
C401        C  0.14606974  0.21155053  0.86982126    -0.27700
C402        C  0.12463795  0.22293207  0.85772847     0.01900
C403        C  0.10556830  0.21739273  0.88786980     0.30000
C404        C  0.10857058  0.20248183  0.93133649    -0.19500
C405        C  0.13042310  0.19270254  0.94506256    -0.28900
C406        C  0.14909583  0.19660267  0.91285265     0.44000
C407        C  0.12317047  0.24176238  0.81499435     0.05200
O408        O  0.08397602  0.22606214  0.87463771    -0.57400
H409        H  0.09388052  0.19922758  0.95493784     0.18100
O410        O  0.17071382  0.18715764  0.92400156    -0.64200
H411        H  0.16088678  0.21540111  0.84682473     0.16600
C412        C  0.11563702  0.26967070  0.81966784     0.28800
C413        C  0.11711213  0.28808000  0.78015538    -0.25100
C414        C  0.12658099  0.27936296  0.73574698    -0.24300
C415        C  0.13389903  0.25119607  0.73111712     0.40300
C416        C  0.13210669  0.23281209  0.77040801    -0.26800
O417        O  0.10774246  0.27955144  0.86330468    -0.58700
H418        H  0.11134762  0.30946241  0.78479236     0.15900
O419        O  0.14342193  0.24142770  0.68882853    -0.60100
H420        H  0.13821941  0.21151948  0.76633346     0.14400
H421        H  0.17837901  0.20300806  0.94085001     0.46200
H422        H  0.12139901  0.28787903  0.87939950     0.41600
H423        H  0.13044526  0.23298842  0.67055650     0.45000
H424        H  0.07931869  0.24004516  0.89935254     0.36500
C425        C  0.87172576  0.27724025  0.25796555    -0.27700
C426        C  0.87523898  0.26808006  0.30545016     0.01900
C427        C  0.87797854  0.23919486  0.31451881     0.30000
C428        C  0.87675391  0.21987813  0.27614415    -0.19500
C429        C  0.87293261  0.22902411  0.22845711    -0.28900
C430        C  0.87069391  0.25816048  0.21965362     0.44000
C431        C  0.87508202  0.28884578  0.34534152     0.05200
O432        O  0.88075637  0.22959566  0.36103386    -0.57400
H433        H  0.87844183  0.19773252  0.28385033     0.18100
O434        O  0.86820255  0.26844158  0.17348002    -0.64200
H435        H  0.86983595  0.29940165  0.25050802     0.16600
C436        C  0.89420436  0.29217670  0.37602793     0.28800
C437        C  0.89237523  0.30873227  0.41770295    -0.25100
C438        C  0.87177579  0.32263619  0.42870396    -0.24300
C439        C  0.85350482  0.32168626  0.39532371     0.40300
C440        C  0.85521094  0.30475544  0.35396417    -0.26800
O441        O  0.91428965  0.27810050  0.36708753    -0.58700
H442        H  0.90647659  0.30905607  0.44338301     0.15900
O443        O  0.83293123  0.33428227  0.40586747    -0.60100
H444        H  0.84046381  0.30265925  0.33021303     0.14400
H445        H  0.85151198  0.27211617  0.16980445     0.46200
H446        H  0.92215629  0.28900837  0.34129507     0.41600
H447        H  0.83422272  0.35340257  0.39207660     0.45000
H448        H  0.89714799  0.22407137  0.36334458     0.36500
C449        C  0.86364774  0.24257294  0.76805065    -0.27700
C450        C  0.86347080  0.25436800  0.81445689     0.01900
C451        C  0.86237171  0.28370185  0.81949186     0.30000
C452        C  0.86216271  0.30088839  0.77819746    -0.19500
C453        C  0.86322667  0.28915129  0.73151026    -0.28900
C454        C  0.86349662  0.25957488  0.72684678     0.44000
C455        C  0.86495298  0.23578572  0.85724613     0.05200
O456        O  0.86180038  0.29574691  0.86463982    -0.57400
H457        H  0.86179984  0.32341746  0.78277335     0.18100
O458        O  0.86396743  0.24691546  0.68216728    -0.64200
H459        H  0.86436519  0.22002316  0.76375105     0.16600
C460        C  0.84768540  0.21584857  0.86698108     0.28800
C461        C  0.84913873  0.19894030  0.90827829    -0.25100
C462        C  0.86763425  0.20168434  0.94081437    -0.24300
C463        C  0.88551326  0.22086575  0.92958776     0.40300
C464        C  0.88395122  0.23778328  0.88825117    -0.26800
O465        O  0.82887072  0.21345053  0.83728485    -0.58700
H466        H  0.83514097  0.18455216  0.91594510     0.15900
O467        O  0.90391485  0.22452932  0.96008900    -0.60100
H468        H  0.89751182  0.25280948  0.88067137     0.14400
H469        H  0.84763057  0.24543965  0.67212418     0.46200
H470        H  0.81785789  0.22770659  0.84920933     0.41600
H471        H  0.91686253  0.21454471  0.94435884     0.45000
H472        H  0.84523894  0.29701089  0.87303757     0.36500
C473        C  0.02329466  0.32270298  0.57931383    -0.27700
C474        C  0.01102267  0.33515810  0.61752044     0.01900
C475        C  0.02318086  0.34712283  0.65661475     0.30000
C476        C  0.04727762  0.34656006  0.65682575    -0.19500
C477        C  0.05945539  0.33393096  0.61868718    -0.28900
C478        C  0.04733487  0.32207642  0.57969290     0.44000
C479        C  0.98556157  0.33492859  0.61618016     0.05200
O480        O  0.01164335  0.35807180  0.69572284    -0.57400
H481        H  0.05648163  0.35562603  0.68722510     0.18100
O482        O  0.05884212  0.31044672  0.54125009    -0.64200
H483        H  0.01416535  0.31365849  0.54881475     0.16600
C484        C  0.97284444  0.35993368  0.61914725     0.28800
C485        C  0.94882912  0.35905598  0.61681978    -0.25100
C486        C  0.93720826  0.33357895  0.60985952    -0.24300
C487        C  0.94986891  0.30856786  0.60667187     0.40300
C488        C  0.97387161  0.30937814  0.60989861    -0.26800
O489        O  0.98371766  0.38537672  0.62307590    -0.58700
H490        H  0.93925668  0.37844296  0.61926038     0.15900
O491        O  0.93897323  0.28321725  0.60121128    -0.60100
H492        H  0.98342763  0.28997579  0.60765103     0.14400
H493        H  0.06219949  0.32632740  0.51912054     0.46200
H494        H  0.98586945  0.39193195  0.58923552     0.41600
H495        H  0.93328034  0.27822453  0.63404542     0.45000
H496        H  0.01491961  0.37847687  0.69516170     0.36500
C497        C  0.71961873  0.12270861  0.24290682    -0.27700
C498        C  0.74022493  0.11811293  0.26815492     0.01900
C499        C  0.73930869  0.11444406  0.31886080     0.30000
C500        C  0.71830012  0.11664932  0.34362937    -0.19500
C501        C  0.69777059  0.12258387  0.31877092    -0.28900
C502        C  0.69859819  0.12519655  0.26767259     0.44000
C503        C  0.76267728  0.12036779  0.24214056     0.05200
O504        O  0.75903057  0.10965541  0.34479312    -0.57400
H505        H  0.71829655  0.11470739  0.38277968     0.18100
O506        O  0.67907350  0.13065735  0.24148849    -0.64200
H507        H  0.71994635  0.12582137  0.20398252     0.16600
C508        C  0.76726242  0.10527040  0.19919349     0.28800
C509        C  0.78774268  0.11009729  0.17328112    -0.25100
C510        C  0.80409527  0.12973273  0.18973396    -0.24300
C511        C  0.79963773  0.14430659  0.23336536     0.40300
C512        C  0.77919354  0.13954198  0.25895631    -0.26800
O513        O  0.75174557  0.08601217  0.18187333    -0.58700
H514        H  0.79074154  0.09858993  0.14000318     0.15900
O515        O  0.81473890  0.16407490  0.25064366    -0.60100
H516        H  0.77585958  0.15175893  0.29132738     0.14400
H517        H  0.67932257  0.15116607  0.23571142     0.46200
H518        H  0.75446549  0.06879275  0.20110813     0.41600
H519        H  0.80957040  0.18206882  0.23644089     0.45000
H520        H  0.75883523  0.08932548  0.35213362     0.36500
C521        C  0.74301036  0.22318938  0.45777808    -0.27700
C522        C  0.74038300  0.23992526  0.49926562     0.01900
C523        C  0.71817722  0.24512137  0.51756707     0.30000
C524        C  0.69901882  0.23388977  0.49423231    -0.19500
C525        C  0.70164455  0.21652884  0.45357771    -0.28900
C526        C  0.72385393  0.21116688  0.43530258     0.44000
C527        C  0.76067566  0.25360524  0.52106579     0.05200
O528        O  0.71505289  0.26062268  0.55894888    -0.57400
H529        H  0.68213312  0.23752476  0.50968545     0.18100
O530        O  0.72706875  0.19374138  0.39629465    -0.64200
H531        H  0.75994201  0.21950808  0.44266214     0.16600
C532        C  0.78058744  0.23845176  0.53355442     0.28800
C533        C  0.80032679  0.25276084  0.54939334    -0.25100
C534        C  0.80036235  0.28205747  0.55215261    -0.24300
C535        C  0.77993517  0.29691147  0.54265537     0.40300
C536        C  0.76042990  0.28270378  0.52681493    -0.26800
O537        O  0.78084669  0.20977557  0.53030454    -0.58700
H538        H  0.81589781  0.24113630  0.55681102     0.15900
O539        O  0.77927107  0.32558389  0.54624122    -0.60100
H540        H  0.74530907  0.29467211  0.51715072     0.14400
H541        H  0.72491171  0.20573841  0.36732006     0.46200
H542        H  0.79061656  0.20546911  0.50175423     0.41600
H543        H  0.76966895  0.32955925  0.57517559     0.45000
H544        H  0.71784612  0.24742035  0.58605093     0.36500
C545        C  0.47596563  0.18714796  0.36716574    -0.27700
C546        C  0.48730649  0.16672139  0.39480990     0.01900
C547        C  0.47419331  0.14721791  0.42152463     0.30000
C548        C  0.45012191  0.14818520  0.41998554    -0.19500
C549        C  0.43879914  0.16864409  0.39252807    -0.28900
C550        C  0.45189785  0.18816093  0.36576648     0.44000
C551        C  0.51280946  0.16622397  0.39576312     0.05200
O552        O  0.48477788  0.12809797  0.45111555    -0.57400
H553        H  0.44025575  0.13321299  0.44109710     0.18100
O554        O  0.44137823  0.20794205  0.33743491    -0.64200
H555        H  0.48584037  0.20217060  0.34618185     0.16600
C556        C  0.52511618  0.14218285  0.38176383     0.28800
C557        C  0.54918619  0.14247236  0.38207859    -0.25100
C558        C  0.56149442  0.16668354  0.39563087    -0.24300
C559        C  0.54906396  0.19065051  0.41019414     0.40300
C560        C  0.52498388  0.19031299  0.40977602    -0.26800
O561        O  0.51381677  0.11845397  0.36669528    -0.58700
H562        H  0.55821313  0.12377730  0.37068275     0.15900
O563        O  0.56017137  0.21461968  0.42470848    -0.60100
H564        H  0.51573684  0.20893622  0.42076307     0.14400
H565        H  0.43773705  0.19823740  0.30654280     0.46200
H566        H  0.50964387  0.12202955  0.33239104     0.41600
H567        H  0.56313535  0.21200279  0.45984298     0.45000
H568        H  0.48177833  0.10954775  0.43614512     0.36500
C569        C  0.24072876  0.12000075  0.19278628    -0.27700
C570        C  0.23950767  0.11280070  0.24220867     0.01900
C571        C  0.21762703  0.10670156  0.26231490     0.30000
C572        C  0.19765382  0.11001276  0.23434658    -0.19500
C573        C  0.19897792  0.11820549  0.18548641    -0.28900
C574        C  0.22084172  0.12222325  0.16440061     0.44000
C575        C  0.26079601  0.11428073  0.27283696     0.05200
O576        O  0.21543256  0.09804843  0.30954068    -0.57400
H577        H  0.18102182  0.10645319  0.25109925     0.18100
O578        O  0.22296237  0.12990576  0.11666143    -0.64200
H579        H  0.25708700  0.12532746  0.17632237     0.16600
C580        C  0.28238067  0.10487807  0.25558503     0.28800
C581        C  0.30256294  0.11050225  0.28193587    -0.25100
C582        C  0.30159396  0.12412525  0.32699586    -0.24300
C583        C  0.27998718  0.13196260  0.34565799     0.40300
C584        C  0.25997593  0.12750333  0.31841417    -0.26800
O585        O  0.28400900  0.09024343  0.21291776    -0.58700
H586        H  0.31899762  0.10392380  0.26735898     0.15900
O587        O  0.27832507  0.14512096  0.38975081    -0.60100
H588        H  0.24388573  0.13551772  0.33241478     0.14400
H589        H  0.22538776  0.15047385  0.11722279     0.46200
H590        H  0.28121402  0.07040423  0.22190126     0.41600
H591        H  0.27658604  0.16527532  0.38204750     0.45000
H592        H  0.21997570  0.07804633  0.30943147     0.36500
C593        C  0.28185007  0.24946813  0.52185626    -0.27700
C594        C  0.26129699  0.24990213  0.49508131     0.01900
C595        C  0.26110394  0.23809935  0.44806264     0.30000
C596        C  0.28088839  0.22491161  0.42988254    -0.19500
C597        C  0.30109954  0.22383716  0.45750740    -0.28900
C598        C  0.30162853  0.23679974  0.50332811     0.44000
C599        C  0.24042944  0.26275501  0.51714806     0.05200
O600        O  0.24198645  0.24026138  0.41910371    -0.57400
H601        H  0.28042124  0.21543525  0.39419768     0.18100
O602        O  0.32085796  0.23525578  0.53197472    -0.64200
H603        H  0.28241691  0.25826325  0.55807338     0.16600
C604        C  0.21895839  0.24883606  0.51753688     0.28800
C605        C  0.19962277  0.26177523  0.53791479    -0.25100
C606        C  0.20137509  0.28819241  0.56008886    -0.24300
C607        C  0.22327607  0.30120947  0.56270765     0.40300
C608        C  0.24235160  0.28870350  0.54076970    -0.26800
O609        O  0.21669644  0.22234836  0.49890161    -0.58700
H610        H  0.18316166  0.25111999  0.53595172     0.15900
O611        O  0.22637544  0.32613085  0.58673555    -0.60100
H612        H  0.25876524  0.29952288  0.54202301     0.14400
H613        H  0.32975028  0.25253562  0.52482229     0.46200
H614        H  0.22088951  0.20962293  0.52586016     0.41600
H615        H  0.22607941  0.34076810  0.56122062     0.45000
H616        H  0.23689505  0.22075993  0.41259875     0.36500
C617        C  0.37262665  0.24093049  0.74040613    -0.27700
C618        C  0.37069883  0.25187945  0.69355125     0.01900
C619        C  0.36759324  0.28091863  0.68734350     0.30000
C620        C  0.36713982  0.29872839  0.72785799    -0.19500
C621        C  0.36928325  0.28779914  0.77487653    -0.28900
C622        C  0.37196493  0.25856846  0.78085725     0.44000
C623        C  0.37161358  0.23272364  0.65140976     0.05200
O624        O  0.36384749  0.29181492  0.64201722    -0.57400
H625        H  0.36456789  0.32098505  0.72259639     0.18100
O626        O  0.37416971  0.24697671  0.82613915    -0.64200
H627        H  0.37485920  0.21860521  0.74560006     0.16600
C628        C  0.38950784  0.23461786  0.61718433     0.28800
C629        C  0.38886363  0.21816053  0.57514373    -0.25100
C630        C  0.37064242  0.19923213  0.56688665    -0.24300
C631        C  0.35385304  0.19564994  0.60362852     0.40300
C632        C  0.35436279  0.21248900  0.64520420    -0.26800
O633        O  0.40742117  0.25298764  0.62397056    -0.58700
H634        H  0.40219200  0.22110089  0.54809701     0.15900
O635        O  0.33615256  0.17682384  0.59830202    -0.60100
H636        H  0.34080757  0.21035708  0.67199840     0.14400
H637        H  0.39096544  0.24640736  0.83232809     0.46200
H638        H  0.41794384  0.24344465  0.64686515     0.41600
H639        H  0.34132096  0.15967232  0.61531147     0.45000
H640        H  0.37890172  0.29956776  0.63156079     0.36500
C641        C  0.36798545  0.26628738  0.23612192    -0.27700
C642        C  0.37154935  0.25487886  0.19000474     0.01900
C643        C  0.37513074  0.22575930  0.18540750     0.30000
C644        C  0.37456886  0.20856503  0.22667546    -0.19500
C645        C  0.37008839  0.21996153  0.27275636    -0.28900
C646        C  0.36702238  0.24923424  0.27707335     0.44000
C647        C  0.37125836  0.27375197  0.14730810     0.05200
O648        O  0.37888216  0.21383387  0.14081480    -0.57400
H649        H  0.37720330  0.18624331  0.22246493     0.18100
O650        O  0.36375813  0.26168608  0.32139798    -0.64200
H651        H  0.36594617  0.28869124  0.24053024     0.16600
C652        C  0.35281748  0.29229805  0.13962750     0.28800
C653        C  0.35265861  0.30968133  0.09880005    -0.25100
C654        C  0.37066554  0.30893635  0.06475326    -0.24300
C655        C  0.38945247  0.29082560  0.07333475     0.40300
C656        C  0.38966828  0.27365248  0.11446797    -0.26800
O657        O  0.33416959  0.29230023  0.17023777    -0.58700
H658        H  0.33782254  0.32289328  0.09282018     0.15900
O659        O  0.40751485  0.28922468  0.04136817    -0.60100
H660        H  0.40420385  0.25994602  0.12042607     0.14400
H661        H  0.34686499  0.26395686  0.32454285     0.46200
H662        H  0.33518385  0.31018350  0.18844253     0.41600
H663        H  0.40454943  0.27215296  0.02178709     0.45000
H664        H  0.36348858  0.21249304  0.12550741     0.36500
C665        C  0.28362873  0.25593559  0.02056383    -0.27700
C666        C  0.26192734  0.25981301  0.99956335     0.01900
C667        C  0.25974508  0.27716947  0.95862024     0.30000
C668        C  0.27915915  0.29061478  0.93950307    -0.19500
C669        C  0.30093607  0.28666378  0.96041605    -0.28900
C670        C  0.30306098  0.26916966  0.00132593     0.44000
C671        C  0.24187221  0.24478260  0.01974803     0.05200
O672        O  0.23873756  0.28112081  0.93712830    -0.57400
H673        H  0.27718100  0.30433442  0.90848487     0.18100
O674        O  0.32369430  0.26648268  0.02492269    -0.64200
H675        H  0.28542876  0.24288828  0.05248724     0.16600
C676        C  0.24186862  0.21539683  0.02182476     0.28800
C677        C  0.22276956  0.20118125  0.04003480    -0.25100
C678        C  0.20328426  0.21581444  0.05628234    -0.24300
C679        C  0.20346688  0.24533451  0.05524656     0.40300
C680        C  0.22267575  0.25962798  0.03676681    -0.26800
O681        O  0.26028128  0.20032689  0.00500864    -0.58700
H682        H  0.22296919  0.17849554  0.03975807     0.15900
O683        O  0.18502893  0.26037599  0.07194371    -0.60100
H684        H  0.22264501  0.28231627  0.03582587     0.14400
H685        H  0.33101531  0.24971719  0.01045055     0.46200
H686        H  0.25746425  0.19788331  0.96978097     0.41600
H687        H  0.18791467  0.26301317  0.10710625     0.45000
H688        H  0.23713620  0.26555516  0.91352955     0.36500
C689        C  0.27499132  0.36422863  0.76136892    -0.27700
C690        C  0.25804136  0.38302540  0.77698160     0.01900
C691        C  0.26250659  0.39983979  0.81810951     0.30000
C692        C  0.28368924  0.39771810  0.84242299    -0.19500
C693        C  0.30079784  0.37919694  0.82597551    -0.28900
C694        C  0.29612728  0.36232871  0.78504577     0.44000
C695        C  0.23581574  0.38410661  0.75011641     0.05200
O696        O  0.24632822  0.41828284  0.83501909    -0.57400
H697        H  0.28674802  0.41060468  0.87414068     0.18100
O698        O  0.31183583  0.34318232  0.76848624    -0.64200
H699        H  0.27167463  0.35039511  0.73100588     0.16600
C700        C  0.23555326  0.38619666  0.69907794     0.28800
C701        C  0.21478219  0.38418431  0.67366940    -0.25100
C702        C  0.19392079  0.37938095  0.69802013    -0.24300
C703        C  0.19404924  0.37801388  0.74927950     0.40300
C704        C  0.21484000  0.38065378  0.77484492    -0.26800
O705        O  0.25560365  0.39031784  0.67364583    -0.58700
H706        H  0.21522511  0.38521897  0.63441834     0.15900
O707        O  0.17402704  0.37398035  0.77480522    -0.60100
H708        H  0.21465383  0.37875293  0.81400378     0.14400
H709        H  0.30896375  0.32598430  0.78778813     0.46200
H710        H  0.25832544  0.37258402  0.65578654     0.41600
H711        H  0.17357086  0.35366822  0.78233232     0.45000
H712        H  0.24694476  0.43444745  0.81247245     0.36500
C713        C  0.77844147  0.26658455  0.04031644    -0.27700
C714        C  0.75973216  0.25080774  0.02287976     0.01900
C715        C  0.76097539  0.22150848  0.02232867     0.30000
C716        C  0.78077354  0.20823254  0.03868179    -0.19500
C717        C  0.79972676  0.22374595  0.05575952    -0.28900
C718        C  0.79841229  0.25319213  0.05693184     0.44000
C719        C  0.73930256  0.26472983  0.00275180     0.05200
O720        O  0.74338889  0.20575307  0.00322442    -0.57400
H721        H  0.78151493  0.18558698  0.03650902     0.18100
O722        O  0.81641356  0.26897467  0.07404778    -0.64200
H723        H  0.77756280  0.28924766  0.04076192     0.16600
C724        C  0.71785402  0.26279350  0.02625251     0.28800
C725        C  0.69833616  0.27439459  0.00465135    -0.25100
C726        C  0.70003110  0.28835171  0.95997963    -0.24300
C727        C  0.72150867  0.29020104  0.93647064     0.40300
C728        C  0.74095210  0.27823477  0.95777185    -0.26800
O729        O  0.71589035  0.24976685  0.07042291    -0.58700
H730        H  0.68204542  0.27350766  0.02380516     0.15900
O731        O  0.72350208  0.30307729  0.89216171    -0.60100
H732        H  0.75732824  0.27928676  0.93900767     0.14400
H733        H  0.81366528  0.27065810  0.10944582     0.46200
H734        H  0.71684299  0.26503830  0.09474821     0.41600
H735        H  0.72933801  0.32219320  0.89924671     0.45000
H736        H  0.73472676  0.19851175  0.03161648     0.36500
C737        C  0.71718766  0.38316429  0.74153243    -0.27700
C738        C  0.73865845  0.38548004  0.76418230     0.01900
C739        C  0.73964477  0.38901580  0.81482535     0.30000
C740        C  0.71931853  0.38834554  0.84239882    -0.19500
C741        C  0.69789311  0.38375691  0.82001596    -0.28900
C742        C  0.69695609  0.38228952  0.76879213     0.44000
C743        C  0.75971299  0.38146699  0.73470962     0.05200
O744        O  0.76043929  0.39151647  0.83789571    -0.57400
H745        H  0.72051813  0.38968957  0.88154061     0.18100
O746        O  0.67649119  0.37851879  0.74488547    -0.64200
H747        H  0.71617738  0.38090514  0.70246701     0.16600
C748        C  0.76278263  0.35641508  0.70857905     0.28800
C749        C  0.78188744  0.35320497  0.67830360    -0.25100
C750        C  0.79844382  0.37453782  0.67406208    -0.24300
C751        C  0.79599292  0.39907443  0.70209096     0.40300
C752        C  0.77652266  0.40258079  0.73164364    -0.26800
O753        O  0.74761899  0.33451994  0.71403788    -0.58700
H754        H  0.78400474  0.33367179  0.65880895     0.15900
O755        O  0.81207805  0.42011406  0.69960489    -0.60100
H756        H  0.77441865  0.42189213  0.75178937     0.14400
H757        H  0.67014769  0.39761118  0.74065739     0.46200
H758        H  0.73815201  0.33445637  0.68414245     0.41600
H759        H  0.82289951  0.41632810  0.72657189     0.45000
H760        H  0.76424390  0.37232450  0.84896740     0.36500
C761        C  0.64203993  0.24317143  0.73261258    -0.27700
C762        C  0.63495924  0.25364510  0.68763387     0.01900
C763        C  0.62755237  0.28168747  0.68465216     0.30000
C764        C  0.62724806  0.29867654  0.72633742    -0.19500
C765        C  0.63424799  0.28815012  0.77165059    -0.28900
C766        C  0.64176660  0.25998441  0.77420401     0.44000
C767        C  0.63507071  0.23478477  0.64458248     0.05200
O768        O  0.62056619  0.29268442  0.64117298    -0.57400
H769        H  0.62146382  0.32013406  0.72311066     0.18100
O770        O  0.64814556  0.24817685  0.81747422    -0.64200
H771        H  0.64748039  0.22156204  0.73572686     0.16600
C772        C  0.65523903  0.22067145  0.63035969     0.28800
C773        C  0.65491228  0.20246088  0.59046079    -0.25100
C774        C  0.63469642  0.19819950  0.56332470    -0.24300
C775        C  0.61439446  0.21200560  0.57826266     0.40300
C776        C  0.61473372  0.23007670  0.61841668    -0.26800
O777        O  0.67557899  0.22518765  0.65434809    -0.58700
H778        H  0.67087654  0.19268618  0.57943145     0.15900
O779        O  0.59422880  0.20870063  0.55310503    -0.60100
H780        H  0.59899753  0.24046470  0.62920793     0.14400
H781        H  0.66517473  0.24950418  0.81816244     0.46200
H782        H  0.68204938  0.24254783  0.63994327     0.41600
H783        H  0.58622567  0.19279550  0.56905728     0.45000
H784        H  0.63441841  0.30195436  0.62746070     0.36500
C785        C  0.61120124  0.27501346  0.11663016    -0.27700
C786        C  0.62914028  0.27656001  0.15049386     0.01900
C787        C  0.64701538  0.29613865  0.14281493     0.30000
C788        C  0.64734458  0.31261611  0.10058635    -0.19500
C789        C  0.62980663  0.31040466  0.06562712    -0.28900
C790        C  0.61119928  0.29192801  0.07503663     0.44000
C791        C  0.62928699  0.25704031  0.19274629     0.05200
O792        O  0.66509397  0.29788719  0.17465005    -0.57400
H793        H  0.66192829  0.32636117  0.09439739     0.18100
O794        O  0.59339366  0.28912227  0.04278651    -0.64200
H795        H  0.59716471  0.26035716  0.12224941     0.16600
C796        C  0.63053769  0.26717916  0.24059665     0.28800
C797        C  0.63140748  0.24844117  0.27962219    -0.25100
C798        C  0.63035189  0.21925574  0.27228315    -0.24300
C799        C  0.62823021  0.20909716  0.22446186     0.40300
C800        C  0.62790117  0.22790972  0.18521402    -0.26800
O801        O  0.63053717  0.29542148  0.24972101    -0.58700
H802        H  0.63251459  0.25692106  0.31601150     0.15900
O803        O  0.62731559  0.18086868  0.21545696    -0.60100
H804        H  0.62679376  0.21969743  0.14864422     0.14400
H805        H  0.58130625  0.30201621  0.05471264     0.46200
H806        H  0.61420403  0.30022985  0.25581986     0.41600
H807        H  0.61068479  0.17618040  0.21441908     0.45000
H808        H  0.66381183  0.31662150  0.18997113     0.36500
C809        C  0.47551428  0.36302252  0.91336047    -0.27700
C810        C  0.48750215  0.34177432  0.88897768     0.01900
C811        C  0.47503743  0.32043743  0.86533135     0.30000
C812        C  0.45097447  0.32010626  0.86735382    -0.19500
C813        C  0.43892692  0.34134163  0.89167161    -0.28900
C814        C  0.45140001  0.36297180  0.91470349     0.44000
C815        C  0.51299888  0.34155638  0.88916152     0.05200
O816        O  0.48623216  0.29995882  0.83968923    -0.57400
H817        H  0.44166881  0.30353765  0.84889149     0.18100
O818        O  0.44020885  0.38388807  0.93925969    -0.64200
H819        H  0.48489403  0.37947334  0.93195989     0.16600
C820        C  0.52578323  0.36371202  0.86884810     0.28800
C821        C  0.54988082  0.36285778  0.86923312    -0.25100
C822        C  0.56164052  0.34005890  0.88986529    -0.24300
C823        C  0.54871820  0.31785589  0.91007766     0.40300
C824        C  0.52463937  0.31878671  0.90970376    -0.26800
O825        O  0.51485801  0.38571519  0.84683109    -0.58700
H826        H  0.55937320  0.38000307  0.85286317     0.15900
O827        O  0.55939309  0.29562180  0.93190770    -0.60100
H828        H  0.51497401  0.30171651  0.92586987     0.14400
H829        H  0.43897233  0.37715011  0.97319594     0.46200
H830        H  0.51504630  0.40106577  0.87106910     0.41600
H831        H  0.56008097  0.28083882  0.90667185     0.45000
H832        H  0.49100239  0.30898960  0.80885180     0.36500
C833        C  0.13924812  0.53313424  0.52793669    -0.27700
C834        C  0.12272781  0.51602469  0.50550199     0.01900
C835        C  0.11041841  0.52681086  0.46549710     0.30000
C836        C  0.11547196  0.55383831  0.44766917    -0.19500
C837        C  0.13245226  0.57057837  0.46966647    -0.28900
C838        C  0.14398371  0.56008225  0.51087433     0.44000
C839        C  0.11997210  0.48663545  0.52334341     0.05200
O840        O  0.09285261  0.51158273  0.44501882    -0.57400
H841        H  0.10593253  0.56180631  0.41692293     0.18100
O842        O  0.16085349  0.57542787  0.53349966    -0.64200
H843        H  0.14908139  0.52528239  0.55836768     0.16600
C844        C  0.12243997  0.46361329  0.49176594     0.28800
C845        C  0.12428512  0.43643252  0.51049844    -0.25100
C846        C  0.12422333  0.43139429  0.56088575    -0.24300
C847        C  0.12052319  0.45426318  0.59236352     0.40300
C848        C  0.11842963  0.48146803  0.57353772    -0.26800
O849        O  0.12460139  0.46746730  0.44267302    -0.58700
H850        H  0.12688768  0.41934204  0.48524198     0.15900
O851        O  0.12043256  0.45066843  0.64170386    -0.60100
H852        H  0.11658032  0.49883509  0.59854027     0.14400
H853        H  0.15313402  0.58443817  0.56153255     0.46200
H854        H  0.14112286  0.47167913  0.43719195     0.41600
H855        H  0.10397385  0.44885929  0.65071235     0.45000
H856        H  0.09738117  0.50852665  0.41071940     0.36500
C857        C  0.86467476  0.47017398  0.48677938    -0.27700
C858        C  0.88000957  0.48849791  0.51006922     0.01900
C859        C  0.89154538  0.47896938  0.55207235     0.30000
C860        C  0.88732668  0.45187986  0.57030556    -0.19500
C861        C  0.87150141  0.43386706  0.54752535    -0.28900
C862        C  0.86043566  0.44325896  0.50483322     0.44000
C863        C  0.88199046  0.51805910  0.49238196     0.05200
O864        O  0.90668412  0.49610602  0.57615085    -0.57400
H865        H  0.89601679  0.44524837  0.60305643     0.18100
O866        O  0.84494798  0.42652964  0.48079082    -0.64200
H867        H  0.85521712  0.47706006  0.45515011     0.16600
C868        C  0.88424418  0.52446176  0.44249534     0.28800
C869        C  0.88207653  0.55222388  0.42621858    -0.25100
C870        C  0.87806220  0.57425383  0.45902850    -0.24300
C871        C  0.87756567  0.56798294  0.50923582     0.40300
C872        C  0.87930397  0.54022826  0.52527093    -0.26800
O873        O  0.88797195  0.50366670  0.40907366    -0.58700
H874        H  0.88291322  0.55635859  0.38761990     0.15900
O875        O  0.87511604  0.58876408  0.54323519    -0.60100
H876        H  0.87746830  0.53600418  0.56367914     0.14400
H877        H  0.85386724  0.41756807  0.45435007     0.46200
H878        H  0.90446228  0.49878967  0.41237218     0.41600
H879        H  0.85878632  0.58782804  0.55363002     0.45000
H880        H  0.92171821  0.49317490  0.55993182     0.36500
C881        C  0.98040736  0.69000152  0.42781291    -0.27700
C882        C  0.99251461  0.66954867  0.40177628     0.01900
C883        C  0.98022506  0.64939249  0.37482524     0.30000
C884        C  0.95620215  0.64977914  0.37462553    -0.19500
C885        C  0.94408131  0.67045212  0.40027999    -0.28900
C886        C  0.95639635  0.69063349  0.42712350     0.44000
C887        C  0.01791422  0.66913439  0.40400766     0.05200
O888        O  0.99151804  0.62941410  0.34820358    -0.57400
H889        H  0.94704608  0.63415403  0.35355510     0.18100
O890        O  0.94516200  0.71079652  0.45342560    -0.64200
H891        H  0.98959827  0.70530256  0.44948323     0.16600
C892        C  0.03092170  0.69340882  0.39412145     0.28800
C893        C  0.05490550  0.69263381  0.39721682    -0.25100
C894        C  0.06630209  0.66778452  0.40967748    -0.24300
C895        C  0.05320603  0.64358322  0.42026159     0.40300
C896        C  0.02922876  0.64442135  0.41736835    -0.26800
O897        O  0.02038879  0.71752745  0.37887636    -0.58700
H898        H  0.06461586  0.71138083  0.38842439     0.15900
O899        O  0.06359502  0.61898287  0.43341201    -0.60100
H900        H  0.01940788  0.62573204  0.42599989     0.14400
H901        H  0.94457371  0.70350733  0.48709209     0.46200
H902        H  0.02195455  0.73091589  0.40620944     0.41600
H903        H  0.06596253  0.62046273  0.46894282     0.45000
H904        H  0.99426044  0.63812786  0.31604882     0.36500
C905        C  0.87244860  0.97379634  0.02516008    -0.27700
C906        C  0.88140888  0.99452784  0.99462485     0.01900
C907        C  0.88918229  0.98696347  0.94797863     0.30000
C908        C  0.88655067  0.95921082  0.93153220    -0.19500
C909        C  0.87641034  0.93863718  0.96134798    -0.28900
C910        C  0.87009420  0.94615963  0.00929309     0.44000
C911        C  0.88034821  0.02413860  0.01095387     0.05200
O912        O  0.89970944  0.00645517  0.91874965    -0.57400
H913        H  0.89214096  0.95392850  0.89517338     0.18100
O914        O  0.86047255  0.92705558  0.04052605    -0.64200
H915        H  0.86640209  0.97927963  0.06113369     0.16600
C916        C  0.86672318  0.04355328  0.98572868     0.28800
C917        C  0.86324666  0.07033977  0.00476944    -0.25100
C918        C  0.87275828  0.07829693  0.04971308    -0.24300
C919        C  0.88668075  0.05898694  0.07467682     0.40300
C920        C  0.89031677  0.03213767  0.05533414    -0.26800
O921        O  0.85576024  0.03612217  0.94357217    -0.58700
H922        H  0.85229818  0.08460515  0.98488754     0.15900
O923        O  0.89653749  0.06591631  0.11823104    -0.60100
H924        H  0.90058609  0.01727765  0.07551302     0.14400
H925        H  0.87358807  0.91927904  0.05906012     0.46200
H926        H  0.84075820  0.02813284  0.95392413     0.41600
H927        H  0.91190865  0.07361609  0.10985110     0.45000
H928        H  0.88881518  0.00990488  0.89178648     0.36500
C929        C  0.86624526  0.74349580  0.74173565    -0.27700
C930        C  0.87509296  0.75268519  0.69720159     0.01900
C931        C  0.88262677  0.78072748  0.69296368     0.30000
C932        C  0.88128874  0.79893918  0.73305755    -0.19500
C933        C  0.87255087  0.78964729  0.77790396    -0.28900
C934        C  0.86498135  0.76146736  0.78168807     0.44000
C935        C  0.87499354  0.73306346  0.65511840     0.05200
O936        O  0.89017626  0.79089207  0.64915582    -0.57400
H937        H  0.88703173  0.82041662  0.72887149     0.18100
O938        O  0.85613046  0.75107422  0.82421086    -0.64200
H939        H  0.86029313  0.72207263  0.74567777     0.16600
C940        C  0.89495171  0.72771705  0.62759181     0.28800
C941        C  0.89371672  0.71068337  0.58614916    -0.25100
C942        C  0.87284562  0.69798388  0.57208277    -0.24300
C943        C  0.85335933  0.70151984  0.60217906     0.40300
C944        C  0.85450774  0.71913665  0.64274857    -0.26800
O945        O  0.91571008  0.73921209  0.64054477    -0.58700
H946        H  0.90904495  0.70800755  0.56424874     0.15900
O947        O  0.83263418  0.68941930  0.59066534    -0.60100
H948        H  0.83905094  0.72256385  0.66392464     0.14400
H949        H  0.86945958  0.74291691  0.84154547     0.46200
H950        H  0.92172024  0.72684948  0.66646345     0.41600
H951        H  0.83154510  0.67250541  0.61142751     0.45000
H952        H  0.90677320  0.79500905  0.65365891     0.36500
C953        C  0.87237023  0.77149300  0.24357043    -0.27700
C954        C  0.87899985  0.76138607  0.19792460     0.01900
C955        C  0.88562242  0.73305947  0.19378663     0.30000
C956        C  0.88459434  0.71521001  0.23437860    -0.19500
C957        C  0.87692147  0.72504030  0.27975597    -0.28900
C958        C  0.87118558  0.75376660  0.28399771     0.44000
C959        C  0.87782204  0.78031333  0.15481522     0.05200
O960        O  0.89267732  0.72241442  0.15003651    -0.57400
H961        H  0.88946279  0.69347658  0.23003053     0.18100
O962        O  0.86474144  0.76505167  0.32769477    -0.64200
H963        H  0.86785693  0.79334835  0.24790204     0.16600
C964        C  0.85729990  0.79453317  0.14338364     0.28800
C965        C  0.85592691  0.81110303  0.10146320    -0.25100
C966        C  0.87486655  0.81413217  0.07011972    -0.24300
C967        C  0.89578555  0.80093597  0.08288841     0.40300
C968        C  0.89705636  0.78411202  0.12460638    -0.26800
O969        O  0.83795730  0.79082408  0.17125918    -0.58700
H970        H  0.83956682  0.82052949  0.09238918     0.15900
O971        O  0.91493153  0.80346679  0.05404152    -0.60100
H972        H  0.91311225  0.77380185  0.13319114     0.14400
H973        H  0.84768039  0.76520523  0.32714254     0.46200
H974        H  0.83629692  0.80843978  0.18999981     0.41600
H975        H  0.92268173  0.82087607  0.06506806     0.45000
H976        H  0.87837705  0.71627469  0.13352091     0.36500
C977        C  0.14009507  0.96736637  0.03007661    -0.27700
C978        C  0.12510859  0.98509457  0.00500034     0.01900
C979        C  0.11362979  0.97502790  0.96356809     0.30000
C980        C  0.11762068  0.94772444  0.94709680    -0.19500
C981        C  0.13283201  0.92999568  0.97184268    -0.28900
C982        C  0.14389529  0.94000491  0.01416768     0.44000
C983        C  0.12337085  0.01471531  0.02009691     0.05200
O984        O  0.09873816  0.99188257  0.93856624    -0.57400
H985        H  0.10883571  0.94044530  0.91480648     0.18100
O986        O  0.15950893  0.92387496  0.03872942    -0.64200
H987        H  0.14950524  0.97506839  0.06129703     0.16600
C988        C  0.11751197  0.02202621  0.06797798     0.28800
C989        C  0.11937673  0.04991459  0.08323133    -0.25100
C990        C  0.12741120  0.07077768  0.05141350    -0.24300
C991        C  0.13187357  0.06355437  0.00248802     0.40300
C992        C  0.12994531  0.03572354  0.98742013    -0.26800
O993        O  0.11007819  0.00197936  0.10009202    -0.58700
H994        H  0.11536448  0.05495793  0.12060762     0.15900
O995        O  0.13952318  0.08307833  0.96965102    -0.60100
H996        H  0.13466819  0.03032975  0.95054215     0.14400
H997        H  0.15071139  0.91531815  0.06582755     0.46200
H998        H  0.12322231  0.99875025  0.12227653     0.41600
H999        H  0.12541005  0.09064841  0.95442004     0.45000
H1000       H  0.08338655  0.98800727  0.95285971     0.36500
C1001       C  0.12888376  0.77290074  0.70173170    -0.27700
C1002       C  0.13343477  0.74425910  0.70877674     0.01900
C1003       C  0.13838456  0.73466845  0.75581044     0.30000
C1004       C  0.13861254  0.75342511  0.79472454    -0.19500
C1005       C  0.13386353  0.78209873  0.78806691    -0.28900
C1006       C  0.12916803  0.79179422  0.74082021     0.44000
C1007       C  0.13375580  0.72477865  0.66667273     0.05200
O1008       O  0.14294351  0.70692588  0.76427567    -0.57400
H1009       H  0.14232919  0.74528045  0.83053064     0.18100
O1010       O  0.12519991  0.81964385  0.73221284    -0.64200
H1011       H  0.12555518  0.78076417  0.66557488     0.16600
C1012       C  0.11489542  0.72279328  0.63493205     0.28800
C1013       C  0.11642697  0.70633240  0.59294488    -0.25100
C1014       C  0.13673428  0.69171220  0.58147208    -0.24300
C1015       C  0.15504782  0.69229169  0.61511420     0.40300
C1016       C  0.15347879  0.70880735  0.65704141    -0.26800
O1017       O  0.09483835  0.73675352  0.64487664    -0.58700
H1018       H  0.10192626  0.70600488  0.56830300     0.15900
O1019       O  0.17515892  0.67830618  0.60606656    -0.60100
H1020       H  0.16814332  0.71001074  0.68117922     0.14400
H1021       H  0.14037692  0.82757094  0.72289778     0.46200
H1022       H  0.09449414  0.75273104  0.62191168     0.41600
H1023       H  0.17342577  0.66003037  0.62278655     0.45000
H1024       H  0.12766006  0.69778775  0.76731743     0.36500
C1025       C  0.14819225  0.76221656  0.24776165    -0.27700
C1026       C  0.13473819  0.75518284  0.20746083     0.01900
C1027       C  0.12187042  0.73013181  0.20807836     0.30000
C1028       C  0.12266810  0.71250671  0.24876943    -0.19500
C1029       C  0.13612690  0.71955623  0.28938690    -0.28900
C1030       C  0.14892663  0.74483776  0.28847676     0.44000
C1031       C  0.13594357  0.77318278  0.16378179     0.05200
O1032       O  0.10951403  0.72197800  0.16809699    -0.57400
H1033       H  0.11276193  0.69323951  0.24836780     0.18100
O1034       O  0.16289137  0.75240763  0.32641526    -0.64200
H1035       H  0.15839969  0.78126721  0.24746731     0.16600
C1036       C  0.11628055  0.78598315  0.14405636     0.28800
C1037       C  0.11816956  0.80213183  0.10169603    -0.25100
C1038       C  0.13963671  0.80626821  0.07913201    -0.24300
C1039       C  0.15934323  0.79397046  0.09983229     0.40300
C1040       C  0.15738908  0.77776659  0.14185059    -0.26800
O1041       O  0.09517857  0.78270248  0.16567467    -0.58700
H1042       H  0.10279170  0.81112526  0.08603920     0.15900
O1043       O  0.18042861  0.79628288  0.07777823    -0.60100
H1044       H  0.17265227  0.76798194  0.15658806     0.14400
H1045       H  0.15423867  0.76695595  0.34442519     0.46200
H1046       H  0.09430867  0.79781435  0.19029223     0.41600
H1047       H  0.18231926  0.77861195  0.05930782     0.45000
H1048       H  0.09315902  0.72501995  0.17685217     0.36500
C1049       C  0.02931436  0.85827085  0.93924116    -0.27700
C1050       C  0.01622830  0.83507966  0.92445532     0.01900
C1051       C  0.02760018  0.81031047  0.91061808     0.30000
C1052       C  0.05174099  0.80955897  0.90906478    -0.19500
C1053       C  0.06487671  0.83327945  0.92146064    -0.28900
C1054       C  0.05339947  0.85747718  0.93817271     0.44000
C1055       C  0.99087395  0.83770670  0.92002926     0.05200
O1056       O  0.01525233  0.78741245  0.89532762    -0.57400
H1057       H  0.06014390  0.79072364  0.89630372     0.18100
O1058       O  0.06556878  0.88033758  0.95429626    -0.64200
H1059       H  0.02078957  0.87726327  0.95092689     0.16600
C1060       C  0.97580203  0.82010490  0.94601760     0.28800
C1061       C  0.95204220  0.82165729  0.93810526    -0.25100
C1062       C  0.94282359  0.84126325  0.90550192    -0.24300
C1063       C  0.95785224  0.85974877  0.88113049     0.40300
C1064       C  0.98167563  0.85771828  0.88821213    -0.26800
O1065       O  0.98411432  0.80143356  0.97939768    -0.58700
H1066       H  0.94073303  0.80770771  0.95807674     0.15900
O1067       O  0.94956432  0.87884645  0.84844242    -0.60100
H1068       H  0.99307099  0.87145602  0.86802259     0.14400
H1069       H  0.06548969  0.89380875  0.92692113     0.46200
H1070       H  0.98418794  0.81175385  0.01063069     0.41600
H1071       H  0.94836670  0.89666690  0.86675055     0.45000
H1072       H  0.01626829  0.77368413  0.92222482     0.36500
C1073       C  0.37224259  0.54152525  0.98454287    -0.27700
C1074       C  0.37788053  0.51944343  0.01570823     0.01900
C1075       C  0.38348555  0.52550213  0.06435023     0.30000
C1076       C  0.38188084  0.55308246  0.08184507    -0.19500
C1077       C  0.37481818  0.57503830  0.05136152    -0.28900
C1078       C  0.37085428  0.56905301  0.00170323     0.44000
C1079       C  0.37613362  0.49013141  0.99771939     0.05200
O1080       O  0.39091585  0.50461564  0.09468738    -0.57400
H1081       H  0.38566438  0.55710135  0.11968233     0.18100
O1082       O  0.36468956  0.58968838  0.96971258    -0.64200
H1083       H  0.36806556  0.53727911  0.94694451     0.16600
C1084       C  0.36144319  0.47079265  0.02089605     0.28800
C1085       C  0.35900894  0.44367160  0.00256551    -0.25100
C1086       C  0.37038860  0.43536897  0.95991794    -0.24300
C1087       C  0.38490947  0.45477044  0.93623291     0.40300
C1088       C  0.38768305  0.48191233  0.95516433    -0.26800
O1089       O  0.34858920  0.47852004  0.06042927    -0.58700
H1090       H  0.34741763  0.42936281  0.02099564     0.15900
O1091       O  0.39641919  0.44752532  0.89464844    -0.60100
H1092       H  0.39879607  0.49665149  0.93646424     0.14400
H1093       H  0.37942463  0.59752767  0.95749739     0.46200
H1094       H  0.33434184  0.48674409  0.04685404     0.41600
H1095       H  0.41043996  0.43767873  0.90579845     0.45000
H1096       H  0.37891309  0.50275450  0.12010634     0.36500
C1097       C  0.26367596  0.73091095  0.06839314    -0.27700
C1098       C  0.26595768  0.75014969  0.03026188     0.01900
C1099       C  0.28803987  0.75698012  0.01255942     0.30000
C1100       C  0.30733188  0.74408978  0.03220990    -0.19500
C1101       C  0.30491771  0.72354669  0.06822993    -0.28900
C1102       C  0.28291628  0.71730580  0.08694624     0.44000
C1103       C  0.24527059  0.76281691  0.00877881     0.05200
O1104       O  0.29089189  0.77523057  0.97455220    -0.57400
H1105       H  0.32406951  0.74883603  0.01681415     0.18100
O1106       O  0.27989002  0.69715778  0.12188098    -0.64200
H1107       H  0.24685825  0.72596585  0.08314119     0.16600
C1108       C  0.22635054  0.74630551  0.99401600     0.28800
C1109       C  0.20709669  0.75903016  0.97337968    -0.25100
C1110       C  0.20656927  0.78810662  0.96676243    -0.24300
C1111       C  0.22550617  0.80457112  0.98199888     0.40300
C1112       C  0.24451008  0.79187828  0.00297506    -0.26800
O1113       O  0.22645666  0.71777716  0.99978892    -0.58700
H1114       H  0.19252687  0.74619292  0.96282676     0.15900
O1115       O  0.22503876  0.83328228  0.97966430    -0.60100
H1116       H  0.25858515  0.80492295  0.01559594     0.14400
H1117       H  0.28313591  0.70670890  0.15308591     0.46200
H1118       H  0.23300743  0.71029298  0.96922163     0.41600
H1119       H  0.23371611  0.83816923  0.94983369     0.45000
H1120       H  0.28927704  0.76360849  0.94491318     0.36500
C1121       C  0.28716927  0.62991323  0.27374982    -0.27700
C1122       C  0.26675744  0.62131112  0.25068487     0.01900
C1123       C  0.26781409  0.61398654  0.20113187     0.30000
C1124       C  0.28846464  0.61680294  0.17508813    -0.19500
C1125       C  0.30871073  0.62656364  0.19750072    -0.28900
C1126       C  0.30795241  0.63245131  0.24784168     0.44000
C1127       C  0.24427857  0.62168133  0.27750840     0.05200
O1128       O  0.24861330  0.60439344  0.17741896    -0.57400
H1129       H  0.28842715  0.61184945  0.13674416     0.18100
O1130       O  0.32731291  0.64101071  0.27218870    -0.64200
H1131       H  0.28689452  0.63572693  0.31171996     0.16600
C1132       C  0.24169232  0.60937073  0.32373753     0.28800
C1133       C  0.22064487  0.61131181  0.34878742    -0.25100
C1134       C  0.20174053  0.62555682  0.32881969    -0.24300
C1135       C  0.20420420  0.63727630  0.28191797     0.40300
C1136       C  0.22523805  0.63535272  0.25703484    -0.26800
O1137       O  0.25944795  0.59470154  0.34421092    -0.58700
H1138       H  0.21928226  0.60190406  0.38442949     0.15900
O1139       O  0.18631228  0.65102936  0.26006585    -0.60100
H1140       H  0.22680755  0.64528898  0.22185211     0.14400
H1141       H  0.32620813  0.66170957  0.27394620     0.46200
H1142       H  0.26479552  0.60630458  0.37187279     0.41600
H1143       H  0.18934133  0.67123556  0.26565943     0.45000
H1144       H  0.24772897  0.58413452  0.18516133     0.36500
C1145       C  0.62100191  0.48547904  0.94283563    -0.27700
C1146       C  0.62606375  0.49166491  0.99148800     0.01900
C1147       C  0.63333516  0.46999588  0.02228080     0.30000
C1148       C  0.63531199  0.44265481  0.00454317    -0.19500
C1149       C  0.63060684  0.43629081  0.95560245    -0.28900
C1150       C  0.62330008  0.45814262  0.92473728     0.44000
C1151       C  0.62647785  0.52112509  0.00865793     0.05200
O1152       O  0.63953124  0.47555072  0.06933435    -0.57400
H1153       H  0.64130512  0.42654915  0.02907975     0.18100
O1154       O  0.61921160  0.45337983  0.87645803    -0.64200
H1155       H  0.61578983  0.50208624  0.91848590     0.16600
C1156       C  0.64210084  0.54020654  0.98806200     0.28800
C1157       C  0.64493574  0.56673335  0.00849437    -0.25100
C1158       C  0.63227787  0.57508890  0.04962492    -0.24300
C1159       C  0.61562813  0.55651964  0.06867486     0.40300
C1160       C  0.61301540  0.52960873  0.04847951    -0.26800
O1161       O  0.65597642  0.53235333  0.95014878    -0.58700
H1162       H  0.65765093  0.58060254  0.99251445     0.15900
O1163       O  0.60279776  0.56374210  0.10848947    -0.60100
H1164       H  0.60088170  0.51506463  0.06465552     0.14400
H1165       H  0.60278691  0.44779027  0.87461629     0.46200
H1166       H  0.64902686  0.54099300  0.92095714     0.41600
H1167       H  0.58840119  0.57172258  0.09519413     0.45000
H1168       H  0.65576019  0.48199342  0.06755605     0.36500
C1169       C  0.74484291  0.72382536  0.03599220    -0.27700
C1170       C  0.74535614  0.75301886  0.03267802     0.01900
C1171       C  0.72586057  0.76845235  0.04743337     0.30000
C1172       C  0.70591878  0.75444365  0.06326536    -0.19500
C1173       C  0.70518256  0.72511878  0.06420847    -0.28900
C1174       C  0.72517033  0.70982391  0.05201363     0.44000
C1175       C  0.76570761  0.76657572  0.01010404     0.05200
O1176       O  0.72576323  0.79711321  0.04426996    -0.57400
H1177       H  0.69063756  0.76641421  0.07174953     0.18100
O1178       O  0.72485580  0.68099959  0.05144313    -0.64200
H1179       H  0.75935658  0.71157484  0.02359738     0.16600
C1180       C  0.78824682  0.75971577  0.02473467     0.28800
C1181       C  0.80713631  0.77226444  0.00185096    -0.25100
C1182       C  0.80397930  0.79161137  0.96416954    -0.24300
C1183       C  0.78149049  0.79767423  0.94837587     0.40300
C1184       C  0.76261529  0.78514553  0.97122591    -0.26800
O1185       O  0.79192755  0.74193156  0.06304964    -0.58700
H1186       H  0.82426167  0.76772006  0.01513544     0.15900
O1187       O  0.77771652  0.81617818  0.91119116    -0.60100
H1188       H  0.74547210  0.78984709  0.95828025     0.14400
H1189       H  0.73893924  0.67478724  0.06856239     0.46200
H1190       H  0.79900263  0.72492647  0.04879844     0.41600
H1191       H  0.77922534  0.80494287  0.88110039     0.45000
H1192       H  0.72877066  0.80384565  0.07769862     0.36500
C1193       C  0.72577650  0.61337005  0.25054793    -0.27700
C1194       C  0.74527220  0.63016034  0.24155760     0.01900
C1195       C  0.74449071  0.64975008  0.20350501     0.30000
C1196       C  0.72509134  0.65142417  0.17390388    -0.19500
C1197       C  0.70586336  0.63397551  0.18119530    -0.28900
C1198       C  0.70612416  0.61523505  0.22087723     0.44000
C1199       C  0.76651311  0.62736014  0.27129570     0.05200
O1200       O  0.76257507  0.66770065  0.19525309    -0.57400
H1201       H  0.72494616  0.66712236  0.14572955     0.18100
O1202       O  0.68732368  0.59886137  0.23130428    -0.64200
H1203       H  0.72591000  0.59846897  0.28016968     0.16600
C1204       C  0.76603742  0.63003136  0.32219665     0.28800
C1205       C  0.78663939  0.62982715  0.34864560    -0.25100
C1206       C  0.80801133  0.62797033  0.32493317    -0.24300
C1207       C  0.80841814  0.62423648  0.27423191     0.40300
C1208       C  0.78782121  0.62373241  0.24798371    -0.26800
O1209       O  0.74567867  0.63437397  0.34619728    -0.58700
H1210       H  0.78593980  0.63285601  0.38757204     0.15900
O1211       O  0.82886977  0.62175435  0.24975510    -0.60100
H1212       H  0.78852668  0.62123182  0.20894060     0.14400
H1213       H  0.69086350  0.58021436  0.21738431     0.46200
H1214       H  0.74379137  0.65500569  0.34718064     0.41600
H1215       H  0.83224235  0.60141030  0.24959569     0.45000
H1216       H  0.75823591  0.68546859  0.21144988     0.36500
C1217       C  0.53105559  0.67157384  0.15623013    -0.27700
C1218       C  0.51853568  0.67219207  0.11289408     0.01900
C1219       C  0.53039761  0.67428646  0.06837310     0.30000
C1220       C  0.55450464  0.67509512  0.06771118    -0.19500
C1221       C  0.56706576  0.67380416  0.11114756    -0.28900
C1222       C  0.55509453  0.67243590  0.15564765     0.44000
C1223       C  0.49309426  0.67145750  0.11461004     0.05200
O1224       O  0.51859287  0.67563128  0.02537065    -0.57400
H1225       H  0.56339512  0.67636084  0.03319677     0.18100
O1226       O  0.56671211  0.67346749  0.19890396    -0.64200
H1227       H  0.52213491  0.67090922  0.19075067     0.16600
C1228       C  0.48118073  0.64883226  0.13586758     0.28800
C1229       C  0.45708424  0.64816783  0.13516572    -0.25100
C1230       C  0.44450384  0.67054401  0.11551625    -0.24300
C1231       C  0.45658351  0.69382524  0.09644210     0.40300
C1232       C  0.48062435  0.69390409  0.09545160    -0.26800
O1233       O  0.49295071  0.62704008  0.15653310    -0.58700
H1234       H  0.44824510  0.63036368  0.15103491     0.15900
O1235       O  0.44515268  0.71682451  0.07917114    -0.66500
H1236       H  0.48961421  0.71179840  0.08025554     0.14400
H1237       H  0.56705626  0.65386277  0.21072624     0.46200
H1238       H  0.49248534  0.63069085  0.19194658     0.41600
H1239       H  0.44230308  0.71281523  0.04439030     0.45000
H1240       H  0.51360724  0.65613793  0.01853160     0.36500
C1241       C  0.63788101  0.96904762  0.49019125    -0.27700
C1242       C  0.62474645  0.98797832  0.51730454     0.01900
C1243       C  0.61516563  0.97900374  0.56180736     0.30000
C1244       C  0.61955855  0.95178893  0.57911694    -0.19500
C1245       C  0.63321012  0.93308196  0.55234793    -0.28900
C1246       C  0.64199952  0.94192870  0.50690911     0.44000
C1247       C  0.62285148  0.01735627  0.49946116     0.05200
O1248       O  0.60083933  0.99631594  0.58758099    -0.57400
H1249       H  0.61216435  0.94529712  0.61343247     0.18100
O1250       O  0.65561029  0.92473344  0.47927994    -0.64200
H1251       H  0.64560030  0.97556727  0.45618687     0.16600
C1252       C  0.62998606  0.04000214  0.52856451     0.28800
C1253       C  0.63191334  0.06684609  0.50865985    -0.25100
C1254       C  0.62748555  0.07184648  0.45916524    -0.24300
C1255       C  0.61931071  0.04942551  0.43050671     0.40300
C1256       C  0.61707868  0.02253105  0.45069081    -0.26800
O1257       O  0.63662205  0.03591527  0.57574602    -0.58700
H1258       H  0.63809014  0.08355991  0.53188179     0.15900
O1259       O  0.61443325  0.05314612  0.38229912    -0.60100
H1260       H  0.61160218  0.00537750  0.42763138     0.14400
H1261       H  0.64521139  0.91676658  0.45427914     0.46200
H1262       H  0.65325135  0.03143264  0.57410082     0.41600
H1263       H  0.59785817  0.05793739  0.38125998     0.45000
H1264       H  0.60851658  0.99948665  0.61924003     0.36500
C1265       C  0.72318489  0.74436341  0.52096787    -0.27700
C1266       C  0.74371273  0.75942971  0.51373524     0.01900
C1267       C  0.74444958  0.78820864  0.52406157     0.30000
C1268       C  0.72502599  0.80145481  0.54234483    -0.19500
C1269       C  0.70449008  0.78652883  0.55047482    -0.28900
C1270       C  0.70360319  0.75771640  0.53938102     0.44000
C1271       C  0.76445816  0.74518799  0.49563267     0.05200
O1272       O  0.76377952  0.80381301  0.51398648    -0.57400
H1273       H  0.72601203  0.82379567  0.54902326     0.18100
O1274       O  0.68379418  0.74249164  0.54607461    -0.64200
H1275       H  0.72244581  0.72217221  0.51282534     0.16600
C1276       C  0.78526649  0.74688223  0.52161284     0.28800
C1277       C  0.80517153  0.73498855  0.50253717    -0.25100
C1278       C  0.80443456  0.72011775  0.45875154    -0.24300
C1279       C  0.78345713  0.71745117  0.43362262     0.40300
C1280       C  0.76368140  0.73037340  0.45174506    -0.26800
O1281       O  0.78619659  0.75956891  0.56623848    -0.58700
H1282       H  0.82098005  0.73617152  0.52326576     0.15900
O1283       O  0.78224581  0.70263287  0.39104552    -0.60100
H1284       H  0.74774108  0.72884059  0.43156211     0.14400
H1285       H  0.68486790  0.73499427  0.57953584     0.46200
H1286       H  0.78013521  0.74544361  0.58938728     0.41600
H1287       H  0.77544359  0.68428106  0.40003666     0.45000
H1288       H  0.76957578  0.81044452  0.54583165     0.36500
C1289       C  0.72250335  0.87897159  0.76831262    -0.27700
C1290       C  0.74189212  0.89139708  0.74677307     0.01900
C1291       C  0.74025171  0.90077989  0.69839202     0.30000
C1292       C  0.72004724  0.89612414  0.67154627    -0.19500
C1293       C  0.70098480  0.88226918  0.69222373    -0.28900
C1294       C  0.70228047  0.87432857  0.74167819     0.44000
C1295       C  0.76435179  0.89140423  0.77308335     0.05200
O1296       O  0.75858164  0.91386986  0.67656916    -0.57400
H1297       H  0.71956116  0.90280385  0.63401645     0.18100
O1298       O  0.68413267  0.86128084  0.76427611    -0.64200
H1299       H  0.72338754  0.87152265  0.80538288     0.16600
C1300       C  0.76674929  0.90241592  0.82031604     0.28800
C1301       C  0.78760161  0.89933905  0.84569364    -0.25100
C1302       C  0.80649697  0.88543490  0.82463982    -0.24300
C1303       C  0.80410043  0.87509235  0.77673639     0.40300
C1304       C  0.78331433  0.87816674  0.75167654    -0.26800
O1305       O  0.74873632  0.91592781  0.84222677    -0.58700
H1306       H  0.78883041  0.90751554  0.88225939     0.15900
O1307       O  0.82175632  0.86125558  0.75412756    -0.60100
H1308       H  0.78176598  0.86919463  0.71570835     0.14400
H1309       H  0.68712918  0.84093782  0.76080146     0.46200
H1310       H  0.75086755  0.93599261  0.83398775     0.41600
H1311       H  0.81932657  0.84117394  0.76193905     0.45000
H1312       H  0.75601611  0.93416360  0.68189940     0.36500
C1313       C  0.63875120  0.73501508  0.76446997    -0.27700
C1314       C  0.63236162  0.74452478  0.81059817     0.01900
C1315       C  0.62696154  0.77315130  0.81671441     0.30000
C1316       C  0.62802041  0.79159388  0.77699741    -0.19500
C1317       C  0.63437955  0.78204663  0.73071538    -0.28900
C1318       C  0.63964350  0.75325387  0.72483058     0.44000
C1319       C  0.63237702  0.72444138  0.85201643     0.05200
O1320       O  0.62189145  0.78360185  0.86185317    -0.57400
H1321       H  0.62407756  0.81350959  0.78267282     0.18100
O1322       O  0.64574109  0.74249401  0.68049948    -0.64200
H1323       H  0.64293105  0.71313695  0.75898530     0.16600
C1324       C  0.61330603  0.72176109  0.88332596     0.28800
C1325       C  0.61476976  0.70482626  0.92465676    -0.25100
C1326       C  0.63483972  0.68966666  0.93487514    -0.24300
C1327       C  0.65320212  0.69051056  0.90165501     0.40300
C1328       C  0.65192109  0.70785015  0.86068138    -0.26800
O1329       O  0.59343795  0.73633074  0.87484890    -0.58700
H1330       H  0.60065941  0.70481103  0.95041799     0.15900
O1331       O  0.67343611  0.67705344  0.91174466    -0.60100
H1332       H  0.66673969  0.70944786  0.83694198     0.14400
H1333       H  0.63114874  0.73578364  0.66585836     0.46200
H1334       H  0.58380887  0.72367116  0.85477055     0.41600
H1335       H  0.67153765  0.65797850  0.89805712     0.45000
H1336       H  0.60573412  0.79011981  0.85994632     0.36500
C1337       C  0.61977025  0.77129121  0.39354321    -0.27700
C1338       C  0.63866347  0.77222287  0.36207445     0.01900
C1339       C  0.65606628  0.79229155  0.36961497     0.30000
C1340       C  0.65498838  0.81022542  0.40972102    -0.19500
C1341       C  0.63655763  0.80862223  0.44278514    -0.28900
C1342       C  0.61843661  0.78945292  0.43328126     0.44000
C1343       C  0.63946335  0.75318067  0.31990457     0.05200
O1344       O  0.67444740  0.79414800  0.33849194    -0.57400
H1345       H  0.66911388  0.82465028  0.41593582     0.18100
O1346       O  0.59983839  0.78721559  0.46373864    -0.64200
H1347       H  0.60601281  0.75633560  0.38729238     0.16600
C1348       C  0.64254680  0.72409861  0.32532765     0.28800
C1349       C  0.64255198  0.70660390  0.28431308    -0.25100
C1350       C  0.63919329  0.71783868  0.23772886    -0.24300
C1351       C  0.63664758  0.74721742  0.23278726     0.40300
C1352       C  0.63673035  0.76445867  0.27359547    -0.26800
O1353       O  0.64608257  0.71275186  0.37038835    -0.58700
H1354       H  0.64478154  0.68425604  0.28905720     0.15900
O1355       O  0.63395684  0.75948717  0.18816950    -0.60100
H1356       H  0.63443680  0.78682885  0.26909493     0.14400
H1357       H  0.58936667  0.80255468  0.45396632     0.46200
H1358       H  0.63075620  0.70597500  0.38113647     0.41600
H1359       H  0.64979807  0.76344634  0.17657167     0.45000
H1360       H  0.68493961  0.77882493  0.34823426     0.36500
C1361       C  0.39056902  0.98182948  0.55780397    -0.27700
C1362       C  0.37704215  0.99143116  0.51899636     0.01900
C1363       C  0.36077472  0.97313146  0.49827659     0.30000
C1364       C  0.35833547  0.94584677  0.51573363    -0.19500
C1365       C  0.37168190  0.93596396  0.55468108    -0.28900
C1366       C  0.38802967  0.95432735  0.57565569     0.44000
C1367       C  0.37877684  0.02079414  0.50117205     0.05200
O1368       O  0.34667375  0.98194365  0.46148261    -0.57400
H1369       H  0.34557710  0.93246575  0.49878434     0.18100
O1370       O  0.40097828  0.94606877  0.61461510    -0.64200
H1371       H  0.40306274  0.99570868  0.57443063     0.16600
C1372       C  0.37425360  0.04355382  0.53212766     0.28800
C1373       C  0.37144309  0.07048305  0.51280318    -0.25100
C1374       C  0.37308401  0.07534981  0.46248870    -0.24300
C1375       C  0.37928705  0.05279633  0.43202058     0.40300
C1376       C  0.38204418  0.02589531  0.45144341    -0.26800
O1377       O  0.37059116  0.03933598  0.58073913    -0.58700
H1378       H  0.36698523  0.08737546  0.53727818     0.15900
O1379       O  0.38141967  0.05632498  0.38285271    -0.60100
H1380       H  0.38577586  0.00863692  0.42716908     0.14400
H1381       H  0.41632098  0.94151833  0.60104213     0.46200
H1382       H  0.38540977  0.04414076  0.59651975     0.41600
H1383       H  0.39796165  0.06039423  0.37733855     0.45000
H1384       H  0.33367879  0.99150911  0.47783051     0.36500
C1385       C  0.36991503  0.78453072  0.82672498    -0.27700
C1386       C  0.37073678  0.75528385  0.82086464     0.01900
C1387       C  0.37156938  0.74407424  0.77374854     0.30000
C1388       C  0.37177182  0.76192762  0.73346661    -0.19500
C1389       C  0.37096539  0.79124189  0.73905349    -0.28900
C1390       C  0.36989887  0.80247098  0.78629142     0.44000
C1391       C  0.37094644  0.73658229  0.86399996     0.05200
O1392       O  0.37237637  0.71564869  0.76672054    -0.57400
H1393       H  0.37249612  0.75270333  0.69757365     0.18100
O1394       O  0.36913060  0.83087636  0.79344252    -0.64200
H1395       H  0.36922673  0.79346096  0.86282887     0.16600
C1396       C  0.38922455  0.73749078  0.89731899     0.28800
C1397       C  0.38888015  0.72029220  0.93852681    -0.25100
C1398       C  0.37032244  0.70194073  0.94781638    -0.24300
C1399       C  0.35228548  0.70054922  0.91341335     0.40300
C1400       C  0.35278155  0.71767224  0.87198397    -0.26800
O1401       O  0.40737977  0.75549226  0.89034284    -0.58700
H1402       H  0.40292607  0.72208472  0.96413551     0.15900
O1403       O  0.33357170  0.68348293  0.92071059    -0.60100
H1404       H  0.33860762  0.71670091  0.84654020     0.14400
H1405       H  0.38542905  0.83688034  0.79616104     0.46200
H1406       H  0.41807213  0.74538712  0.86848203     0.41600
H1407       H  0.33825336  0.66488732  0.90816035     0.45000
H1408       H  0.38895842  0.71117219  0.76358518     0.36500
C1409       C  0.35822308  0.75024205  0.29840513    -0.27700
C1410       C  0.37948751  0.76186131  0.31226437     0.01900
C1411       C  0.39977951  0.75200494  0.28980008     0.30000
C1412       C  0.39856152  0.73098527  0.25443593    -0.19500
C1413       C  0.37723739  0.72016270  0.23987373    -0.28900
C1414       C  0.35699563  0.73003396  0.26173276     0.44000
C1415       C  0.38037754  0.78283179  0.35220096     0.05200
O1416       O  0.42083266  0.76327092  0.30120516    -0.57400
H1417       H  0.41419731  0.72410863  0.23665792     0.18100
O1418       O  0.33594217  0.71982544  0.24762566    -0.64200
H1419       H  0.34247906  0.75684787  0.31599666     0.16600
C1420       C  0.36490714  0.80561177  0.35473702     0.28800
C1421       C  0.36373773  0.82210649  0.39693708    -0.25100
C1422       C  0.37798639  0.81624522  0.43665790    -0.24300
C1423       C  0.39486087  0.79524113  0.43201764     0.40300
C1424       C  0.39583093  0.77869263  0.39040798    -0.26800
O1425       O  0.34997555  0.81095989  0.31741348    -0.58700
H1426       H  0.35046054  0.83786842  0.40005944     0.15900
O1427       O  0.40956551  0.78953271  0.46963531    -0.60100
H1428       H  0.40777894  0.76134605  0.38960623     0.14400
H1429       H  0.33007786  0.73355548  0.22370607     0.46200
H1430       H  0.35957132  0.81921393  0.29126641     0.41600
H1431       H  0.40400611  0.77168354  0.48397124     0.45000
H1432       H  0.42231384  0.78020723  0.28059659     0.36500
C1433       C  0.47871845  0.82222573  0.57405614    -0.27700
C1434       C  0.49070581  0.83959075  0.60640207     0.01900
C1435       C  0.47807843  0.85704584  0.63783397     0.30000
C1436       C  0.45392488  0.85660688  0.63715384    -0.19500
C1437       C  0.44177449  0.83867155  0.60566297    -0.28900
C1438       C  0.45460656  0.82150937  0.57359489     0.44000
C1439       C  0.51632603  0.83896769  0.60770602     0.05200
O1440       O  0.48917491  0.87419866  0.67022846    -0.57400
H1441       H  0.44470308  0.87006455  0.66206085     0.18100
O1442       O  0.44388951  0.80376216  0.54164268    -0.64200
H1443       H  0.48811978  0.80895781  0.54910866     0.16600
C1444       C  0.52825355  0.81372576  0.61555593     0.28800
C1445       C  0.55237002  0.81361747  0.61738760    -0.25100
C1446       C  0.56510136  0.83848306  0.61151367    -0.24300
C1447       C  0.55308791  0.86376651  0.60338765     0.40300
C1448       C  0.52898616  0.86381285  0.60155473    -0.26800
O1449       O  0.51642873  0.78926297  0.62384354    -0.58700
H1450       H  0.56109469  0.79400589  0.62423905     0.15900
O1451       O  0.56463460  0.88864501  0.59728925    -0.60100
H1452       H  0.52011727  0.88337344  0.59508233     0.14400
H1453       H  0.44287586  0.78551274  0.55872362     0.46200
H1454       H  0.51765912  0.77846141  0.59322044     0.41600
H1455       H  0.56948760  0.88884835  0.56278277     0.45000
H1456       H  0.49341152  0.86189779  0.69776128     0.36500
C1457       C  0.26561989  0.77891974  0.53893399    -0.27700
C1458       C  0.26499974  0.74991158  0.54462341     0.01900
C1459       C  0.28424662  0.73593783  0.56402795     0.30000
C1460       C  0.30430038  0.75117688  0.57515754    -0.19500
C1461       C  0.30521545  0.78014632  0.56646819    -0.28900
C1462       C  0.28537855  0.79400467  0.54944287     0.44000
C1463       C  0.24481229  0.73508001  0.52501048     0.05200
O1464       O  0.28384751  0.70748052  0.57071661    -0.57400
H1465       H  0.31937154  0.74024100  0.58817708     0.18100
O1466       O  0.28518269  0.82246617  0.54227444    -0.64200
H1467       H  0.25100488  0.78991436  0.52382929     0.16600
C1468       C  0.22246909  0.74332219  0.53854339     0.28800
C1469       C  0.20346690  0.73325414  0.51304376    -0.25100
C1470       C  0.20632885  0.71449955  0.47433916    -0.24300
C1471       C  0.22875808  0.70632180  0.46068258     0.40300
C1472       C  0.24776965  0.71651083  0.48618533    -0.26800
O1473       O  0.21909375  0.76160396  0.57627535    -0.58700
H1474       H  0.18641273  0.73937377  0.52479996     0.15900
O1475       O  0.23230865  0.68828480  0.42264823    -0.60100
H1476       H  0.26490983  0.71071771  0.47447500     0.14400
H1477       H  0.28643651  0.82509968  0.50666344     0.46200
H1478       H  0.21985009  0.74994382  0.60598389     0.41600
H1479       H  0.23314634  0.70036319  0.39343923     0.45000
H1480       H  0.27706060  0.70469091  0.60339507     0.36500
C1481       C  0.23830722  0.89197610  0.80973482    -0.27700
C1482       C  0.23690250  0.88328196  0.76096711     0.01900
C1483       C  0.21515817  0.87497925  0.74298869     0.30000
C1484       C  0.19609175  0.87325210  0.77403662    -0.19500
C1485       C  0.19777109  0.88021153  0.82354566    -0.28900
C1486       C  0.21900329  0.89079786  0.84072241     0.44000
C1487       C  0.25822028  0.88082110  0.73018645     0.05200
O1488       O  0.21236027  0.86772640  0.69519366    -0.57400
H1489       H  0.17998499  0.86560885  0.75926034     0.18100
O1490       O  0.22123876  0.89971521  0.88779844    -0.64200
H1491       H  0.25465474  0.89858801  0.82469307     0.16600
C1492       C  0.27531965  0.90196879  0.72845019     0.28800
C1493       C  0.29551046  0.89813829  0.70065450    -0.25100
C1494       C  0.29887626  0.87364554  0.67322157    -0.24300
C1495       C  0.28160454  0.85275478  0.67451379     0.40300
C1496       C  0.26182119  0.85629352  0.70298724    -0.26800
O1497       O  0.27195953  0.92698788  0.75184666    -0.58700
H1498       H  0.30834451  0.91464453  0.69976283     0.15900
O1499       O  0.28403889  0.82838746  0.64870356    -0.60100
H1500       H  0.24937004  0.83936890  0.70435532     0.14400
H1501       H  0.22957035  0.88452500  0.90475608     0.46200
H1502       H  0.28318050  0.92721188  0.77891184     0.41600
H1503       H  0.29032620  0.81460887  0.67204684     0.45000
H1504       H  0.21249886  0.88568151  0.67712570     0.36500
loop_ 
_geom_bond_atom_site_label_1 
_geom_bond_atom_site_label_2 
_geom_bond_distance 
_geom_bond_site_symmetry_2 
_ccdc_geom_bond_type 
O1          Cr19   2.034       .  S
O1            C9   1.273       .  A
O2          Cr19   2.001       .  S
O2            C3   1.260       .  A
C3            O4   1.254       .  A
C3         C1389   1.487       .  S
O4          Cr20   1.978       .  S
O5          Cr20   2.002       .  S
O5            C6   1.265       .  A
C6            O7   1.259       .  A
C6         C1461   1.471       .  S
O7          Cr21   1.975       .  S
O8          Cr21   1.981       .  S
O8            C9   1.262       .  A
C9         C1494   1.497       .  S
O10         Cr19   2.000       .  S
O10          C18   1.262       .  A
O11         Cr19   2.034       .  S
O11          C12   1.277       .  A
C12          O13   1.264       .  A
C12        C1437   1.498       .  S
O13         Cr20   1.972       .  S
O14         Cr20   1.975       .  S
O14          C15   1.260       .  A
C15          O16   1.268       .  A
C15        C1422   1.476       .  S
O16         Cr21   2.008       .  S
O17         Cr21   1.987       .  S
O17          C18   1.261       .  A
C18        C1365   1.494       .  S
Cr19         O22   1.779       .  S
Cr20         O22   1.775       .  S
Cr21         O22   1.775       .  S
O23         Cr41   2.042       .  S
O23          C31   1.276       .  A
O24         Cr41   1.970       .  S
O24          C25   1.259       .  A
C25          O26   1.269       .  A
C25        C1446   1.488       .  S
O26         Cr42   2.021       .  S
O27         Cr42   1.963       .  S
O27          C28   1.256       .  A
C28          O29   1.269       .  A
C28        C1341   1.486       .  S
O29         Cr43   2.027       .  S
O30         Cr43   1.952       .  S
O30          C31   1.256       .  A
C31        C1245   1.489       .  S
O32         Cr41   1.975       .  S
O32          C40   1.259       .  A
O33         Cr41   2.040       .  S
O33          C34   1.275       .  A
C34          O35   1.254       .  A
C34        C1317   1.492       .  S
O35         Cr42   1.952       .  S
O36         Cr42   2.025       .  S
O36          C37   1.269       .  A
C37          O38   1.256       .  A
C37        C1269   1.474       .  S
O38         Cr43   1.949       .  S
O39         Cr43   2.028       .  S
O39          C40   1.270       .  A
C40        C1293   1.498       .  S
Cr41         O44   1.763       .  S
Cr42         O44   1.765       .  S
Cr43         O44   1.762       .  S
O45         Cr63   2.017       .  S
O45          C53   1.268       .  A
O46         Cr63   2.002       .  S
O46          C47   1.262       .  A
C47          O48   1.256       .  A
C47        C1350   1.485       .  S
O48         Cr64   1.976       .  S
O49         Cr64   2.014       .  S
O49          C50   1.267       .  A
C50          O51   1.255       .  A
C50        C1173   1.474       .  S
O51         Cr65   1.965       .  S
O52         Cr65   1.975       .  S
O52          C53   1.262       .  A
C53        C1197   1.492       .  S
O54         Cr63   2.006       .  S
O54          C62   1.264       .  A
O55         Cr63   2.005       .  S
O55          C56   1.269       .  A
C56          O57   1.264       .  A
C56        C1221   1.479       .  S
O57         Cr64   1.983       .  S
O58         Cr64   1.980       .  S
O58          C59   1.261   1_554  A
C59          O60   1.269       .  A
C59        C1326   1.470       .  S
O60         Cr65   2.000   1_556  S
O61         Cr65   1.977       .  S
O61          C62   1.259       .  A
C62        C1158   1.489       .  S
Cr63         O66   1.780       .  S
Cr64         O66   1.770       .  S
Cr65         O66   1.769       .  S
O67         Cr85   2.034       .  S
O67          C75   1.274       .  A
O68         Cr85   1.977       .  S
O68          C69   1.263       .  A
C69          O70   1.267       .  A
C69        C1230   1.482       .  S
O70         Cr86   2.005       .  S
O71         Cr86   1.973       .  S
O71          C72   1.260   1_554  A
C72          O73   1.271   1_556  A
C72        C1398   1.496       .  S
O73         Cr87   2.034       .  S
O74         Cr87   1.962       .  S
O74          C75   1.259       .  A
C75        C1077   1.492       .  S
O76         Cr85   1.986       .  S
O76          C84   1.260       .  A
O77         Cr85   2.025       .  S
O77          C78   1.268       .  A
C78          O79   1.254       .  A
C78        C1413   1.465       .  S
O79         Cr86   1.958       .  S
O80         Cr86   2.004       .  S
O80          C81   1.265       .  A
C81          O82   1.255       .  A
C81        C1101   1.465       .  S
O82         Cr87   1.958       .  S
O83         Cr87   2.022       .  S
O83          C84   1.269       .  A
C84        C1125   1.500       .  S
Cr85         O88   1.771       .  S
Cr86         O88   1.763       .  S
Cr87         O88   1.763       .  S
O89        Cr107   1.976       .  S
O89          C97   1.261       .  A
O90        Cr107   2.036       .  S
O90          C91   1.273       .  A
C91          O92   1.256       .  A
C91        C1005   1.488       .  S
O92        Cr108   1.955       .  S
O93        Cr108   2.028       .  S
O93          C94   1.269       .  A
C94          O95   1.250       .  A
C94        C1110   1.468       .  S
O95        Cr109   1.943       .  S
O96        Cr109   2.028       .  S
O96          C97   1.269       .  A
C97        C1485   1.499       .  S
O98        Cr107   2.029       .  S
O98         C106   1.273       .  A
O99        Cr107   1.971       .  S
O99         C100   1.260       .  A
C100        O101   1.270       .  A
C100       C1053   1.486       .  S
O101       Cr108   2.024       .  S
O102       Cr108   1.968   1_554  S
O102        C103   1.257       .  A
C103        O104   1.271       .  A
C103       C1038   1.480       .  S
O104       Cr109   2.033   1_554  S
O105       Cr109   1.953       .  S
O105        C106   1.256       .  A
C106        C981   1.481       .  S
Cr107       O110   1.761       .  S
Cr108       O110   1.767       .  S
Cr109       O110   1.760       .  S
O111       Cr129   2.038       .  S
O111        C119   1.274       .  A
O112       Cr129   1.981       .  S
O112        C113   1.262       .  A
C113        O114   1.267       .  A
C113       C1062   1.481       .  S
O114       Cr130   2.007       .  S
O115       Cr130   1.966       .  S
O115        C116   1.256   1_556  A
C116        O117   1.273       .  A
C116        C966   1.493       .  S
O117       Cr131   2.038   1_554  S
O118       Cr131   1.958       .  S
O118        C119   1.257       .  A
C119        C909   1.493       .  S
O120       Cr129   1.978       .  S
O120        C128   1.261       .  A
O121       Cr129   2.037       .  S
O121        C122   1.273       .  A
C122        O123   1.257       .  A
C122        C933   1.494       .  S
O123       Cr130   1.960       .  S
O124       Cr130   2.017       .  S
O124        C125   1.267       .  A
C125        O126   1.255       .  A
C125       C1182   1.473       .  S
O126       Cr131   1.960       .  S
O127       Cr131   2.027       .  S
O127        C128   1.270       .  A
C128       C1302   1.499       .  S
Cr129       O132   1.772       .  S
Cr130       O132   1.763       .  S
Cr131       O132   1.764       .  S
O133       Cr151   1.975       .  S
O133        C141   1.260       .  A
O134       Cr151   2.036       .  S
O134        C135   1.272       .  A
C135        O136   1.258       .  A
C135        C957   1.498       .  S
O136       Cr152   1.968       .  S
O137       Cr152   2.020       .  S
O137        C138   1.269       .  A
C138        O139   1.255       .  A
C138       C1278   1.465       .  S
O139       Cr153   1.956       .  S
O140       Cr153   2.012       .  S
O140        C141   1.266       .  A
C141       C1206   1.482       .  S
O142       Cr151   2.040       .  S
O142        C150   1.275       .  A
O143       Cr151   1.961       .  S
O143        C144   1.259       .  A
C144        O145   1.268       .  A
C144        C885   1.473       .  S
O145       Cr152   2.008       .  S
O146       Cr152   1.975       .  S
O146        C147   1.258       .  A
C147        O148   1.267       .  A
C147        C942   1.491       .  S
O148       Cr153   2.022       .  S
O149       Cr153   1.964       .  S
O149        C150   1.259       .  A
C150        C870   1.495       .  S
Cr151       O154   1.770       .  S
Cr152       O154   1.766       .  S
Cr153       O154   1.764       .  S
O155       Cr173   2.037       .  S
O155        C163   1.274       .  A
O156       Cr173   1.968       .  S
O156        C157   1.259       .  A
C157        O158   1.268       .  A
C157        C894   1.476       .  S
O158       Cr174   2.011       .  S
O159       Cr174   1.967       .  S
O159        C160   1.258       .  A
C160        O161   1.271       .  A
C160       C1014   1.490       .  S
O161       Cr175   2.033       .  S
O162       Cr175   1.956       .  S
O162        C163   1.257       .  A
C163        C837   1.487       .  S
O164       Cr173   1.981       .  S
O164        C172   1.259       .  A
O165       Cr173   2.029       .  S
O165        C166   1.272       .  A
C166        O167   1.257       .  A
C166       C1029   1.486       .  S
O167       Cr174   1.958       .  S
O168       Cr174   2.021       .  S
O168        C169   1.268       .  A
C169        O170   1.252       .  A
C169       C1470   1.471       .  S
O170       Cr175   1.952       .  S
O171       Cr175   2.021       .  S
O171        C172   1.269       .  A
C172       C1134   1.498       .  S
Cr173       O176   1.764       .  S
Cr174       O176   1.763       .  S
Cr175       O176   1.758       .  S
O177       Cr195   1.958       .  S
O177        C185   1.256       .  A
O178       Cr195   2.033       .  S
O178        C179   1.272       .  A
C179        O180   1.258       .  A
C179        C765   1.495       .  S
O180       Cr196   1.966       .  S
O181       Cr196   2.024       .  S
O181        C182   1.268       .  A
C182        O183   1.254       .  A
C182        C726   1.469       .  S
O183       Cr197   1.960       .  S
O184       Cr197   2.024       .  S
O184        C185   1.269       .  A
C185        C741   1.485       .  S
O186       Cr195   2.031       .  S
O186        C194   1.272       .  A
O187       Cr195   1.967       .  S
O187        C188   1.260       .  A
C188        O189   1.270       .  A
C188        C822   1.485       .  S
O189       Cr196   2.019       .  S
O190       Cr196   1.968       .  S
O190        C191   1.259   1_556  A
C191        O192   1.272       .  A
C191        C789   1.495       .  S
O192       Cr197   2.034   1_554  S
O193       Cr197   1.964       .  S
O193        C194   1.259       .  A
C194       C1149   1.491       .  S
Cr195       O198   1.768       .  S
Cr196       O198   1.764       .  S
Cr197       O198   1.766       .  S
O199       Cr217   2.030       .  S
O199        C207   1.272       .  A
O200       Cr217   1.977       .  S
O200        C201   1.260       .  A
C201        O202   1.269       .  A
C201        C813   1.479       .  S
O202       Cr218   2.019       .  S
O203       Cr218   1.961       .  S
O203        C204   1.256   1_556  A
C204        O205   1.270       .  A
C204        C654   1.485       .  S
O205       Cr219   2.023   1_554  S
O206       Cr219   1.960       .  S
O206        C207   1.259       .  A
C207       C1086   1.484       .  S
O208       Cr217   1.972       .  S
O208        C216   1.260       .  A
O209       Cr217   2.033       .  S
O209        C210   1.272       .  A
C210        O211   1.255       .  A
C210        C621   1.480       .  S
O211       Cr218   1.955       .  S
O212       Cr218   2.022       .  S
O212        C213   1.269       .  A
C213        O214   1.255       .  A
C213        C669   1.472       .  S
O214       Cr219   1.962       .  S
O215       Cr219   2.017       .  S
O215        C216   1.267       .  A
C216        C693   1.486       .  S
Cr217       O220   1.765       .  S
Cr218       O220   1.763       .  S
Cr219       O220   1.766       .  S
O221       Cr239   1.987       .  S
O221        C229   1.262       .  A
O222       Cr239   2.027       .  S
O222        C223   1.270       .  A
C223        O224   1.256       .  A
C223        C645   1.483       .  S
O224       Cr240   1.955       .  S
O225       Cr240   2.020       .  S
O225        C226   1.267       .  A
C226        O227   1.258       .  A
C226        C597   1.473       .  S
O227       Cr241   1.974       .  S
O228       Cr241   2.009       .  S
O228        C229   1.266       .  A
C229        C582   1.483       .  S
O230       Cr239   2.020       .  S
O230        C238   1.270       .  A
O231       Cr239   1.975       .  S
O231        C232   1.260       .  A
C232        O233   1.267       .  A
C232        C549   1.475       .  S
O233       Cr240   2.018       .  S
O234       Cr240   1.976       .  S
O234        C235   1.261       .  A
C235        O236   1.267       .  A
C235        C630   1.488       .  S
O236       Cr241   2.012       .  S
O237       Cr241   1.973       .  S
O237        C238   1.260       .  A
C238       C1374   1.491       .  S
Cr239       O242   1.772       .  S
Cr240       O242   1.768       .  S
Cr241       O242   1.763       .  S
O243       Cr261   2.039       .  S
O243        C251   1.275       .  A
O244       Cr261   1.972       .  S
O244        C245   1.261       .  A
C245        O246   1.268       .  A
C245        C558   1.486       .  S
O246       Cr262   2.010       .  S
O247       Cr262   1.971       .  S
O247        C248   1.257       .  A
C248        O249   1.269       .  A
C248        C774   1.491       .  S
O249       Cr263   2.029       .  S
O250       Cr263   1.960       .  S
O250        C251   1.259       .  A
C251       C1254   1.492       .  S
O252       Cr261   1.980       .  S
O252        C260   1.259       .  A
O253       Cr261   2.034       .  S
O253        C254   1.272       .  A
C254        O255   1.257       .  A
C254        C798   1.490       .  S
O255       Cr262   1.961       .  S
O256       Cr262   2.016       .  S
O256        C257   1.269       .  A
C257        O258   1.255       .  A
C257        C525   1.466       .  S
O258       Cr263   1.956       .  S
O259       Cr263   2.017       .  S
O259        C260   1.268       .  A
C260        C501   1.493       .  S
Cr261       O264   1.768       .  S
Cr262       O264   1.764       .  S
Cr263       O264   1.765       .  S
O265       Cr283   2.010       .  S
O265        C273   1.266       .  A
O266       Cr283   2.004       .  S
O266        C267   1.265       .  A
C267        O268   1.257       .  A
C267        C453   1.486       .  S
O268       Cr284   1.975       .  S
O269       Cr284   2.000       .  S
O269        C270   1.260       .  A
C270        O271   1.254       .  A
C270        C534   1.467       .  S
O271       Cr285   1.969       .  S
O272       Cr285   1.977       .  S
O272        C273   1.261       .  A
C273        C750   1.478       .  S
O274       Cr283   2.009       .  S
O274        C282   1.265       .  A
O275       Cr283   1.996       .  S
O275        C276   1.265       .  A
C276        O277   1.263       .  A
C276        C486   1.470       .  S
O277       Cr284   1.975       .  S
O278       Cr284   1.988       .  S
O278        C279   1.265       .  A
C279        O280   1.267       .  A
C279        C438   1.467       .  S
O280       Cr285   1.991       .  S
O281       Cr285   1.987       .  S
O281        C282   1.259       .  A
C282        C861   1.493       .  S
Cr283       O286   1.778       .  S
Cr284       O286   1.776       .  S
Cr285       O286   1.775       .  S
O287       Cr305   2.041       .  S
O287        C295   1.276       .  A
O288       Cr305   1.957       .  S
O288        C289   1.258       .  A
C289        O290   1.271       .  A
C289        C477   1.469       .  S
O290       Cr306   2.021       .  S
O291       Cr306   1.966       .  S
O291        C292   1.254       .  A
C292        O293   1.269       .  A
C292        C381   1.487       .  S
O293       Cr307   2.029       .  S
O294       Cr307   1.965       .  S
O294        C295   1.261       .  A
C295        C846   1.494       .  S
O296       Cr305   1.973       .  S
O296        C304   1.257       .  A
O297       Cr305   2.030       .  S
O297        C298   1.271       .  A
C298        O299   1.254       .  A
C298        C414   1.489       .  S
O299       Cr306   1.956       .  S
O300       Cr306   2.037       .  S
O300        C301   1.274       .  A
C301        O302   1.256       .  A
C301        C606   1.487       .  S
O302       Cr307   1.956       .  S
O303       Cr307   2.019       .  S
O303        C304   1.269       .  A
C304        C702   1.487       .  S
Cr305       O308   1.771       .  S
Cr306       O308   1.763       .  S
Cr307       O308   1.762       .  S
O309       Cr327   1.979       .  S
O309        C317   1.261       .  A
O310       Cr327   2.025       .  S
O310        C311   1.270       .  A
C311        O312   1.258       .  A
C311        C390   1.490       .  S
O312       Cr328   1.963       .  S
O313       Cr328   2.020       .  S
O313        C314   1.268       .  A
C314        O315   1.256       .  A
C314        C678   1.476       .  S
O315       Cr329   1.955       .  S
O316       Cr329   2.015       .  S
O316        C317   1.268       .  A
C317        C573   1.485       .  S
O318       Cr327   2.019       .  S
O318        C326   1.270       .  A
O319       Cr327   1.974       .  S
O319        C320   1.261       .  A
C320        O321   1.268       .  A
C320        C366   1.486       .  S
O321       Cr328   2.013       .  S
O322       Cr328   1.978       .  S
O322        C323   1.260   1_554  A
C323        O324   1.266   1_556  A
C323        C405   1.485       .  S
O324       Cr329   2.010       .  S
O325       Cr329   1.958       .  S
O325        C326   1.256       .  A
C326        C990   1.483       .  S
Cr327       O330   1.770       .  S
Cr328       O330   1.765       .  S
Cr329       O330   1.761       .  S
O331       Cr349   2.042       .  S
O331        C339   1.277       .  A
O332       Cr349   1.963       .  S
O332        C333   1.259       .  A
C333        O334   1.272       .  A
C333        C357   1.481       .  S
O334       Cr350   2.027       .  S
O335       Cr350   1.962       .  S
O335        C336   1.254   1_554  A
C336        O337   1.268   1_556  A
C336        C462   1.485       .  S
O337       Cr351   2.022       .  S
O338       Cr351   1.952       .  S
O338        C339   1.258       .  A
C339        C918   1.487       .  S
O340       Cr349   1.975       .  S
O340        C348   1.258       .  A
O341       Cr349   2.037       .  S
O341        C342   1.272       .  A
C342        O343   1.252       .  A
C342        C429   1.485       .  S
O343       Cr350   1.944       .  S
O344       Cr350   2.038       .  S
O344        C345   1.272       .  A
C345        O346   1.256       .  A
C345        C717   1.476       .  S
O346       Cr351   1.951       .  S
O347       Cr351   2.020       .  S
O347        C348   1.266       .  A
C348        C510   1.490       .  S
Cr349       O352   1.768       .  S
Cr350       O352   1.763       .  S
Cr351       O352   1.763       .  S
C353        C354   1.405       .  A
C353        C358   1.402       .  A
C353        H363   1.084       .  S
C354        C359   1.484   1_655  S
C354        C355   1.408       .  A
C355        C356   1.402       .  A
C355        O360   1.373       .  S
C356        C357   1.407       .  A
C356        H361   1.084       .  S
C357        C358   1.408       .  A
C358        O362   1.371       .  S
C359        C364   1.409       .  A
C359        C368   1.402       .  A
O360        H376   0.992       .  S
O362        H373   0.992       .  S
C364        C365   1.400       .  A
C364        O369   1.372       .  S
C365        C366   1.407       .  A
C365        H370   1.084       .  S
C366        C367   1.413       .  A
C367        C368   1.400       .  A
C367        O371   1.372       .  S
C368        H372   1.084       .  S
O369        H374   0.992       .  S
O371        H375   0.992       .  S
C377        C378   1.405       .  A
C377        C382   1.403       .  A
C377        H387   1.083       .  S
C378        C383   1.493       .  S
C378        C379   1.412       .  A
C379        C380   1.401       .  A
C379        O384   1.372       .  S
C380        C381   1.405       .  A
C380        H385   1.084       .  S
C381        C382   1.413       .  A
C382        O386   1.371       .  S
C383        C388   1.413       .  A
C383        C392   1.402       .  A
O384        H400   0.992       .  S
O386        H397   0.991       .  S
C388        C389   1.406       .  A
C388        O393   1.372       .  S
C389        C390   1.407       .  A
C389        H394   1.083       .  S
C390        C391   1.415       .  A
C391        C392   1.397       .  A
C391        O395   1.372       .  S
C392        H396   1.083       .  S
O393        H398   0.992       .  S
O395        H399   0.992       .  S
C401        C402   1.402       .  A
C401        C406   1.396       .  A
C401        H411   1.084       .  S
C402        C407   1.485       .  S
C402        C403   1.409       .  A
C403        C404   1.405       .  A
C403        O408   1.373       .  S
C404        C405   1.407       .  A
C404        H409   1.083       .  S
C405        C406   1.413       .  A
C406        O410   1.372       .  S
C407        C412   1.410       .  A
C407        C416   1.401       .  A
O408        H424   0.992       .  S
O410        H421   0.992       .  S
C412        C413   1.402       .  A
C412        O417   1.371       .  S
C413        C414   1.405       .  A
C413        H418   1.083       .  S
C414        C415   1.418       .  A
C415        C416   1.398       .  A
C415        O419   1.372       .  S
C416        H420   1.084       .  S
O417        H422   0.992       .  S
O419        H423   0.992       .  S
C425        C426   1.396       .  A
C425        C430   1.396       .  A
C425        H435   1.084       .  S
C426        C431   1.480       .  S
C426        C427   1.411       .  A
C427        C428   1.405       .  A
C427        O432   1.372       .  S
C428        C429   1.404       .  A
C428        H433   1.083       .  S
C429        C430   1.419       .  A
C430        O434   1.372       .  S
C431        C436   1.406       .  A
C431        C440   1.405       .  A
O432        H448   0.992       .  S
O434        H445   0.992       .  S
C436        C437   1.398       .  A
C436        O441   1.371       .  S
C437        C438   1.404       .  A
C437        H442   1.084       .  S
C438        C439   1.407       .  A
C439        C440   1.401       .  A
C439        O443   1.371       .  S
C440        H444   1.084       .  S
O441        H446   0.992       .  S
O443        H447   0.991       .  S
C449        C450   1.398       .  A
C449        C454   1.396       .  A
C449        H459   1.084       .  S
C450        C455   1.479       .  S
C450        C451   1.409       .  A
C451        C452   1.404       .  A
C451        O456   1.371       .  S
C452        C453   1.405       .  A
C452        H457   1.083       .  S
C453        C454   1.418       .  A
C454        O458   1.372       .  S
C455        C460   1.406       .  A
C455        C464   1.400       .  A
O456        H472   0.992       .  S
O458        H469   0.992       .  S
C460        C461   1.399       .  A
C460        O465   1.371       .  S
C461        C462   1.407       .  A
C461        H466   1.083       .  S
C462        C463   1.416       .  A
C463        C464   1.400       .  A
C463        O467   1.372       .  S
C464        H468   1.084       .  S
O465        H470   0.992       .  S
O467        H471   0.992       .  S
C473        C474   1.404       .  A
C473        C478   1.398       .  A
C473        H483   1.084       .  S
C474        C479   1.480   1_455  S
C474        C475   1.409       .  A
C475        C476   1.401       .  A
C475        O480   1.373       .  S
C476        C477   1.404       .  A
C476        H481   1.084       .  S
C477        C478   1.404       .  A
C478        O482   1.371       .  S
C479        C484   1.409       .  A
C479        C488   1.405       .  A
O480        H496   0.992       .  S
O482        H493   0.992       .  S
C484        C485   1.398       .  A
C484        O489   1.371       .  S
C485        C486   1.402       .  A
C485        H490   1.084       .  S
C486        C487   1.408       .  A
C487        C488   1.399       .  A
C487        O491   1.372       .  S
C488        H492   1.084       .  S
O489        H494   0.992       .  S
O491        H495   0.992       .  S
C497        C498   1.404       .  A
C497        C502   1.404       .  A
C497        H507   1.083       .  S
C498        C503   1.492       .  S
C498        C499   1.410       .  A
C499        C500   1.403       .  A
C499        O504   1.372       .  S
C500        C501   1.407       .  A
C500        H505   1.083       .  S
C501        C502   1.415       .  A
C502        O506   1.372       .  S
C503        C508   1.411       .  A
C503        C512   1.403       .  A
O504        H520   0.992       .  S
O506        H517   0.992       .  S
C508        C509   1.406       .  A
C508        O513   1.371       .  S
C509        C510   1.408       .  A
C509        H514   1.083       .  S
C510        C511   1.413       .  A
C511        C512   1.399       .  A
C511        O515   1.372       .  S
C512        H516   1.084       .  S
O513        H518   0.992       .  S
O515        H519   0.992       .  S
C521        C522   1.403       .  A
C521        C526   1.396       .  A
C521        H531   1.083       .  S
C522        C527   1.475       .  S
C522        C523   1.408       .  A
C523        C524   1.392       .  A
C523        O528   1.372       .  S
C524        C525   1.402       .  A
C524        H529   1.084       .  S
C525        C526   1.409       .  A
C526        O530   1.372       .  S
C527        C532   1.411       .  A
C527        C536   1.398       .  A
O528        H544   0.992       .  S
O530        H541   0.991       .  S
C532        C533   1.403       .  A
C532        O537   1.372       .  S
C533        C534   1.401       .  A
C533        H538   1.083       .  S
C534        C535   1.410       .  A
C535        C536   1.390       .  A
C535        O539   1.373       .  S
C536        H540   1.084       .  S
O537        H542   0.992       .  S
O539        H543   0.992       .  S
C545        C546   1.405       .  A
C545        C550   1.401       .  A
C545        H555   1.084       .  S
C546        C551   1.483       .  S
C546        C547   1.408       .  A
C547        C548   1.401       .  A
C547        O552   1.373       .  S
C548        C549   1.403       .  A
C548        H553   1.084       .  S
C549        C550   1.409       .  A
C550        O554   1.372       .  S
C551        C556   1.408       .  A
C551        C560   1.402       .  A
O552        H568   0.992       .  S
O554        H565   0.992       .  S
C556        C557   1.399       .  A
C556        O561   1.372       .  S
C557        C558   1.408       .  A
C557        H562   1.083       .  S
C558        C559   1.414       .  A
C559        C560   1.400       .  A
C559        O563   1.371       .  S
C560        H564   1.084       .  S
O561        H566   0.992       .  S
O563        H567   0.992       .  S
C569        C570   1.407       .  A
C569        C574   1.401       .  A
C569        H579   1.082       .  S
C570        C575   1.500       .  S
C570        C571   1.416       .  A
C571        C572   1.404       .  A
C571        O576   1.372       .  S
C572        C573   1.405       .  A
C572        H577   1.084       .  S
C573        C574   1.409       .  A
C574        O578   1.372       .  S
C575        C580   1.416       .  A
C575        C584   1.407       .  A
O576        H592   0.992       .  S
O578        H589   0.992       .  S
C580        C581   1.406       .  A
C580        O585   1.371       .  S
C581        C582   1.403       .  A
C581        H586   1.083       .  S
C582        C583   1.408       .  A
C583        C584   1.401       .  A
C583        O587   1.371       .  S
C584        H588   1.083       .  S
O585        H590   0.992       .  S
O587        H591   0.991       .  S
C593        C594   1.405       .  A
C593        C598   1.397       .  A
C593        H603   1.083       .  S
C594        C599   1.490       .  S
C594        C595   1.413       .  A
C595        C596   1.405       .  A
C595        O600   1.373       .  S
C596        C597   1.402       .  A
C596        H601   1.083       .  S
C597        C598   1.407       .  A
C598        O602   1.372       .  S
C599        C604   1.412       .  A
C599        C608   1.403       .  A
O600        H616   0.992       .  S
O602        H613   0.991       .  S
C604        C605   1.401       .  A
C604        O609   1.371       .  S
C605        C606   1.405       .  A
C605        H610   1.083       .  S
C606        C607   1.416       .  A
C607        C608   1.398       .  A
C607        O611   1.373       .  S
C608        H612   1.084       .  S
O609        H614   0.991       .  S
O611        H615   0.992       .  S
C617        C618   1.398       .  A
C617        C622   1.398       .  A
C617        H627   1.084       .  S
C618        C623   1.479       .  S
C618        C619   1.409       .  A
C619        C620   1.404       .  A
C619        O624   1.372       .  S
C620        C621   1.403       .  A
C620        H625   1.083       .  S
C621        C622   1.415       .  A
C622        O626   1.372       .  S
C623        C628   1.406       .  A
C623        C632   1.400       .  A
O624        H640   0.991       .  S
O626        H637   0.992       .  S
C628        C629   1.400       .  A
C628        O633   1.372       .  S
C629        C630   1.408       .  A
C629        H634   1.083       .  S
C630        C631   1.415       .  A
C631        C632   1.400       .  A
C631        O635   1.371       .  S
C632        H636   1.084       .  S
O633        H638   0.992       .  S
O635        H639   0.992       .  S
C641        C642   1.398       .  A
C641        C646   1.393       .  A
C641        H651   1.083       .  S
C642        C647   1.483       .  S
C642        C643   1.412       .  A
C643        C644   1.403       .  A
C643        O648   1.372       .  S
C644        C645   1.406       .  A
C644        H649   1.083       .  S
C645        C646   1.415       .  A
C646        O650   1.372       .  S
C647        C652   1.409       .  A
C647        C656   1.401       .  A
O648        H664   0.992       .  S
O650        H661   0.992       .  S
C652        C653   1.399       .  A
C652        O657   1.373       .  S
C653        C654   1.405       .  A
C653        H658   1.083       .  S
C654        C655   1.416       .  A
C655        C656   1.400       .  A
C655        O659   1.372       .  S
C656        H660   1.084       .  S
O657        H662   0.992       .  S
O659        H663   0.992       .  S
C665        C666   1.402   1_554  A
C665        C670   1.396       .  A
C665        H675   1.084       .  S
C666        C671   1.475   1_556  S
C666        C667   1.407       .  A
C667        C668   1.399       .  A
C667        O672   1.372       .  S
C668        C669   1.405       .  A
C668        H673   1.084       .  S
C669        C670   1.409   1_556  A
C670        O674   1.372       .  S
C671        C676   1.404       .  A
C671        C680   1.404       .  A
O672        H688   0.992       .  S
O674        H685   0.991       .  S
C676        C677   1.392       .  A
C676        O681   1.372       .  S
C677        C678   1.406       .  A
C677        H682   1.083       .  S
C678        C679   1.410       .  A
C679        C680   1.402       .  A
C679        O683   1.371       .  S
C680        H684   1.083       .  S
O681        H686   0.992   1_554  S
O683        H687   0.992       .  S
C689        C690   1.402       .  A
C689        C694   1.395       .  A
C689        H699   1.083       .  S
C690        C695   1.491       .  S
C690        C691   1.413       .  A
C691        C692   1.407       .  A
C691        O696   1.372       .  S
C692        C693   1.408       .  A
C692        H697   1.083       .  S
C693        C694   1.412       .  A
C694        O698   1.372       .  S
C695        C700   1.411       .  A
C695        C704   1.405       .  A
O696        H712   0.992       .  S
O698        H709   0.992       .  S
C700        C701   1.400       .  A
C700        O705   1.373       .  S
C701        C702   1.403       .  A
C701        H706   1.083       .  S
C702        C703   1.415       .  A
C703        C704   1.405       .  A
C703        O707   1.372       .  S
C704        H708   1.083       .  S
O705        H710   0.992       .  S
O707        H711   0.992       .  S
C713        C714   1.406       .  A
C713        C718   1.405       .  A
C713        H723   1.083       .  S
C714        C719   1.473       .  S
C714        C715   1.401       .  A
C715        C716   1.392       .  A
C715        O720   1.372       .  S
C716        C717   1.407       .  A
C716        H721   1.084       .  S
C717        C718   1.409       .  A
C718        O722   1.371       .  S
C719        C724   1.407       .  A
C719        C728   1.401   1_554  A
O720        H736   0.992       .  S
O722        H733   0.992       .  S
C724        C725   1.399       .  A
C724        O729   1.372       .  S
C725        C726   1.404   1_554  A
C725        H730   1.084       .  S
C726        C727   1.408       .  A
C727        C728   1.399       .  A
C727        O731   1.372       .  S
C728        H732   1.084       .  S
O729        H734   0.992       .  S
O731        H735   0.992       .  S
C737        C738   1.400       .  A
C737        C742   1.395       .  A
C737        H747   1.084       .  S
C738        C743   1.481       .  S
C738        C739   1.407       .  A
C739        C740   1.404       .  A
C739        O744   1.371       .  S
C740        C741   1.407       .  A
C740        H745   1.083       .  S
C741        C742   1.415       .  A
C742        O746   1.372       .  S
C743        C748   1.408       .  A
C743        C752   1.403       .  A
O744        H760   0.992       .  S
O746        H757   0.992       .  S
C748        C749   1.397       .  A
C748        O753   1.373       .  S
C749        C750   1.403       .  A
C749        H754   1.083       .  S
C750        C751   1.411       .  A
C751        C752   1.404       .  A
C751        O755   1.371       .  S
C752        H756   1.083       .  S
O753        H758   0.992       .  S
O755        H759   0.992       .  S
C761        C762   1.400       .  A
C761        C766   1.399       .  A
C761        H771   1.084       .  S
C762        C767   1.489       .  S
C762        C763   1.410       .  A
C763        C764   1.406       .  A
C763        O768   1.371       .  S
C764        C765   1.408       .  A
C764        H769   1.083       .  S
C765        C766   1.417       .  A
C766        O770   1.372       .  S
C767        C772   1.410       .  A
C767        C776   1.403       .  A
O768        H784   0.992       .  S
O770        H781   0.992       .  S
C772        C773   1.402       .  A
C772        O777   1.372       .  S
C773        C774   1.408       .  A
C773        H778   1.083       .  S
C774        C775   1.415       .  A
C775        C776   1.403       .  A
C775        O779   1.371       .  S
C776        H780   1.083       .  S
O777        H782   0.992       .  S
O779        H783   0.992       .  S
C785        C786   1.402       .  A
C785        C790   1.403       .  A
C785        H795   1.084       .  S
C786        C791   1.492       .  S
C786        C787   1.411       .  A
C787        C788   1.405       .  A
C787        O792   1.372       .  S
C788        C789   1.408       .  A
C788        H793   1.083       .  S
C789        C790   1.417       .  A
C790        O794   1.371       .  S
C791        C796   1.407       .  A
C791        C800   1.408       .  A
O792        H808   0.992       .  S
O794        H805   0.992       .  S
C796        C797   1.401       .  A
C796        O801   1.371       .  S
C797        C798   1.409       .  A
C797        H802   1.084       .  S
C798        C799   1.410       .  A
C799        C800   1.407       .  A
C799        O803   1.371       .  S
C800        H804   1.083       .  S
O801        H806   0.992       .  S
O803        H807   0.992       .  S
C809        C810   1.404       .  A
C809        C814   1.402       .  A
C809        H819   1.084       .  S
C810        C815   1.482       .  S
C810        C811   1.408       .  A
C811        C812   1.400       .  A
C811        O816   1.372       .  S
C812        C813   1.404       .  A
C812        H817   1.084       .  S
C813        C814   1.411       .  A
C814        O818   1.372       .  S
C815        C820   1.406       .  A
C815        C824   1.403       .  A
O816        H832   0.992       .  S
O818        H829   0.992       .  S
C820        C821   1.402       .  A
C820        O825   1.372       .  S
C821        C822   1.408       .  A
C821        H826   1.084       .  S
C822        C823   1.411       .  A
C823        C824   1.401       .  A
C823        O827   1.371       .  S
C824        H828   1.084       .  S
O825        H830   0.992       .  S
O827        H831   0.992       .  S
C833        C834   1.402       .  A
C833        C838   1.396       .  A
C833        H843   1.084       .  S
C834        C839   1.495       .  S
C834        C835   1.414       .  A
C835        C836   1.411       .  A
C835        O840   1.373       .  S
C836        C837   1.406       .  A
C836        H841   1.083       .  S
C837        C838   1.413       .  A
C838        O842   1.372       .  S
C839        C844   1.409       .  A
C839        C848   1.408       .  A
O840        H856   0.992       .  S
O842        H853   0.992       .  S
C844        C845   1.401       .  A
C844        O849   1.371       .  S
C845        C846   1.410       .  A
C845        H850   1.083       .  S
C846        C847   1.411       .  A
C847        C848   1.405       .  A
C847        O851   1.371       .  S
C848        H852   1.084       .  S
O849        H854   0.992       .  S
O851        H855   0.991       .  S
C857        C858   1.402       .  A
C857        C862   1.399       .  A
C857        H867   1.083       .  S
C858        C863   1.497       .  S
C858        C859   1.415       .  A
C859        C860   1.408       .  A
C859        O864   1.371       .  S
C860        C861   1.405       .  A
C860        H865   1.083       .  S
C861        C862   1.416       .  A
C862        O866   1.372       .  S
C863        C868   1.415       .  A
C863        C872   1.402       .  A
O864        H880   0.991       .  S
O866        H877   0.992       .  S
C868        C869   1.406       .  A
C868        O873   1.372       .  S
C869        C870   1.407       .  A
C869        H874   1.083       .  S
C870        C871   1.416       .  A
C871        C872   1.401       .  A
C871        O875   1.372       .  S
C872        H876   1.083       .  S
O873        H878   0.992       .  S
O875        H879   0.992       .  S
C881        C882   1.403       .  A
C881        C886   1.396       .  A
C881        H891   1.083       .  S
C882        C887   1.478   1_655  S
C882        C883   1.408       .  A
C883        C884   1.397       .  A
C883        O888   1.372       .  S
C884        C885   1.405       .  A
C884        H889   1.084       .  S
C885        C886   1.408       .  A
C886        O890   1.372       .  S
C887        C892   1.408       .  A
C887        C896   1.403       .  A
O888        H904   0.992       .  S
O890        H901   0.992       .  S
C892        C893   1.397       .  A
C892        O897   1.373       .  S
C893        C894   1.404       .  A
C893        H898   1.084       .  S
C894        C895   1.411       .  A
C895        C896   1.397       .  A
C895        O899   1.372       .  S
C896        H900   1.084       .  S
O897        H902   0.992       .  S
O899        H903   0.992       .  S
C905        C906   1.398   1_554  A
C905        C910   1.396       .  A
C905        H915   1.084       .  S
C906        C911   1.485   1_566  S
C906        C907   1.410       .  A
C907        C908   1.408       .  A
C907        O912   1.373   1_565  S
C908        C909   1.408       .  A
C908        H913   1.083       .  S
C909        C910   1.418   1_556  A
C910        O914   1.371       .  S
C911        C916   1.406   1_554  A
C911        C920   1.407       .  A
O912        H928   0.991       .  S
O914        H925   0.992       .  S
C916        C917   1.397   1_556  A
C916        O921   1.372       .  S
C917        C918   1.409       .  A
C917        H922   1.084   1_554  S
C918        C919   1.409       .  A
C919        C920   1.405       .  A
C919        O923   1.371       .  S
C920        H924   1.083       .  S
O921        H926   0.992       .  S
O923        H927   0.992       .  S
C929        C930   1.400       .  A
C929        C934   1.398       .  A
C929        H939   1.084       .  S
C930        C935   1.491       .  S
C930        C931   1.412       .  A
C931        C932   1.408       .  A
C931        O936   1.372       .  S
C932        C933   1.407       .  A
C932        H937   1.083       .  S
C933        C934   1.418       .  A
C934        O938   1.372       .  S
C935        C940   1.409       .  A
C935        C944   1.404       .  A
O936        H952   0.992       .  S
O938        H949   0.992       .  S
C940        C941   1.404       .  A
C940        O945   1.371       .  S
C941        C942   1.409       .  A
C941        H946   1.083       .  S
C942        C943   1.414       .  A
C943        C944   1.401       .  A
C943        O947   1.372       .  S
C944        H948   1.084       .  S
O945        H950   0.992       .  S
O947        H951   0.992       .  S
C953        C954   1.402       .  A
C953        C958   1.401       .  A
C953        H963   1.083       .  S
C954        C959   1.495       .  S
C954        C955   1.412       .  A
C955        C956   1.408       .  A
C955        O960   1.371       .  S
C956        C957   1.408       .  A
C956        H961   1.083       .  S
C957        C958   1.417       .  A
C958        O962   1.372       .  S
C959        C964   1.411       .  A
C959        C968   1.404       .  A
O960        H976   0.992       .  S
O962        H973   0.992       .  S
C964        C965   1.403       .  A
C964        O969   1.372       .  S
C965        C966   1.406       .  A
C965        H970   1.083       .  S
C966        C967   1.417       .  A
C967        C968   1.405       .  A
C967        O971   1.372       .  S
C968        H972   1.083       .  S
O969        H974   0.992       .  S
O971        H975   0.992       .  S
C977        C978   1.400       .  A
C977        C982   1.396       .  A
C977        H987   1.084       .  S
C978        C983   1.478   1_565  S
C978        C979   1.407   1_554  A
C979        C980   1.400       .  A
C979        O984   1.371       .  S
C980        C981   1.404       .  A
C980        H985   1.083       .  S
C981        C982   1.415   1_556  A
C982        O986   1.372       .  S
C983        C988   1.407       .  A
C983        C992   1.400   1_554  A
O984       H1000   0.992       .  S
O986        H997   0.992       .  S
C988        C989   1.400       .  A
C988        O993   1.372       .  S
C989        C990   1.405       .  A
C989        H994   1.083       .  S
C990        C991   1.416       .  A
C991        C992   1.396   1_554  A
C991        O995   1.372   1_554  S
C992        H996   1.084       .  S
O993        H998   0.992   1_545  S
O995        H999   0.992       .  S
C1001      C1002   1.407       .  A
C1001      C1006   1.405       .  A
C1001      H1011   1.083       .  S
C1002      C1007   1.487       .  S
C1002      C1003   1.406       .  A
C1003      C1004   1.397       .  A
C1003      O1008   1.372       .  S
C1004      C1005   1.410       .  A
C1004      H1009   1.083       .  S
C1005      C1006   1.410       .  A
C1006      O1010   1.371       .  S
C1007      C1012   1.407       .  A
C1007      C1016   1.404       .  A
O1008      H1024   0.992       .  S
O1010      H1021   0.992       .  S
C1012      C1013   1.402       .  A
C1012      O1017   1.373       .  S
C1013      C1014   1.409       .  A
C1013      H1018   1.083       .  S
C1014      C1015   1.413       .  A
C1015      C1016   1.402       .  A
C1015      O1019   1.371       .  S
C1016      H1020   1.083       .  S
O1017      H1022   0.992       .  S
O1019      H1023   0.992       .  S
C1025      C1026   1.400       .  A
C1025      C1030   1.397       .  A
C1025      H1035   1.084       .  S
C1026      C1031   1.481       .  S
C1026      C1027   1.408       .  A
C1027      C1028   1.403       .  A
C1027      O1032   1.372       .  S
C1028      C1029   1.407       .  A
C1028      H1033   1.083       .  S
C1029      C1030   1.415       .  A
C1030      O1034   1.372       .  S
C1031      C1036   1.408       .  A
C1031      C1040   1.401       .  A
O1032      H1048   0.992       .  S
O1034      H1045   0.992       .  S
C1036      C1037   1.403       .  A
C1036      O1041   1.371       .  S
C1037      C1038   1.407       .  A
C1037      H1042   1.084       .  S
C1038      C1039   1.411       .  A
C1039      C1040   1.397       .  A
C1039      O1043   1.371       .  S
C1040      H1044   1.084       .  S
O1041      H1046   0.992       .  S
O1043      H1047   0.992       .  S
C1049      C1050   1.402       .  A
C1049      C1054   1.401       .  A
C1049      H1059   1.084       .  S
C1050      C1055   1.485   1_455  S
C1050      C1051   1.409       .  A
C1051      C1052   1.404       .  A
C1051      O1056   1.372       .  S
C1052      C1053   1.406       .  A
C1052      H1057   1.083       .  S
C1053      C1054   1.413       .  A
C1054      O1058   1.372       .  S
C1055      C1060   1.407       .  A
C1055      C1064   1.405       .  A
O1056      H1072   0.992       .  S
O1058      H1069   0.992       .  S
C1060      C1061   1.401       .  A
C1060      O1065   1.371       .  S
C1061      C1062   1.406       .  A
C1061      H1066   1.084       .  S
C1062      C1063   1.409       .  A
C1063      C1064   1.403       .  A
C1063      O1067   1.371       .  S
C1064      H1068   1.084       .  S
O1065      H1070   0.992   1_556  S
O1067      H1071   0.992       .  S
C1073      C1074   1.400   1_556  A
C1073      C1078   1.399   1_556  A
C1073      H1083   1.084       .  S
C1074      C1079   1.488   1_554  S
C1074      C1075   1.410       .  A
C1075      C1076   1.405       .  A
C1075      O1080   1.373       .  S
C1076      C1077   1.407       .  A
C1076      H1081   1.083       .  S
C1077      C1078   1.417       .  A
C1078      O1082   1.372   1_554  S
C1079      C1084   1.408   1_556  A
C1079      C1088   1.407       .  A
O1080      H1096   0.992       .  S
O1082      H1093   0.992       .  S
C1084      C1085   1.396       .  A
C1084      O1089   1.372       .  S
C1085      C1086   1.406   1_554  A
C1085      H1090   1.084       .  S
C1086      C1087   1.410       .  A
C1087      C1088   1.406       .  A
C1087      O1091   1.371       .  S
C1088      H1092   1.083       .  S
O1089      H1094   0.992       .  S
O1091      H1095   0.992       .  S
C1097      C1098   1.402       .  A
C1097      C1102   1.394       .  A
C1097      H1107   1.083       .  S
C1098      C1103   1.473       .  S
C1098      C1099   1.410       .  A
C1099      C1100   1.392       .  A
C1099      O1104   1.372   1_554  S
C1100      C1101   1.402       .  A
C1100      H1105   1.084       .  S
C1101      C1102   1.409       .  A
C1102      O1106   1.372       .  S
C1103      C1108   1.411   1_554  A
C1103      C1112   1.398       .  A
O1104      H1120   0.992       .  S
O1106      H1117   0.991       .  S
C1108      C1109   1.397       .  A
C1108      O1113   1.371       .  S
C1109      C1110   1.401       .  A
C1109      H1114   1.083       .  S
C1110      C1111   1.414       .  A
C1111      C1112   1.389   1_556  A
C1111      O1115   1.373       .  S
C1112      H1116   1.084       .  S
O1113      H1118   0.991       .  S
O1115      H1119   0.991       .  S
C1121      C1122   1.407       .  A
C1121      C1126   1.407       .  A
C1121      H1131   1.083       .  S
C1122      C1127   1.501       .  S
C1122      C1123   1.411       .  A
C1123      C1124   1.404       .  A
C1123      O1128   1.371       .  S
C1124      C1125   1.408       .  A
C1124      H1129   1.083       .  S
C1125      C1126   1.416       .  A
C1126      O1130   1.372       .  S
C1127      C1132   1.411       .  A
C1127      C1136   1.406       .  A
O1128      H1144   0.992       .  S
O1130      H1141   0.992       .  S
C1132      C1133   1.407       .  A
C1132      O1137   1.372       .  S
C1133      C1134   1.408       .  A
C1133      H1138   1.083       .  S
C1134      C1135   1.416       .  A
C1135      C1136   1.404       .  A
C1135      O1139   1.372       .  S
C1136      H1140   1.083       .  S
O1137      H1142   0.992       .  S
O1139      H1143   0.992       .  S
C1145      C1146   1.405       .  A
C1145      C1150   1.404       .  A
C1145      H1155   1.083       .  S
C1146      C1151   1.484   1_556  S
C1146      C1147   1.405   1_556  A
C1147      C1148   1.399       .  A
C1147      O1152   1.372       .  S
C1148      C1149   1.410   1_554  A
C1148      H1153   1.083       .  S
C1149      C1150   1.414       .  A
C1150      O1154   1.371       .  S
C1151      C1156   1.403   1_554  A
C1151      C1160   1.408       .  A
O1152      H1168   0.992       .  S
O1154      H1165   0.992       .  S
C1156      C1157   1.395   1_556  A
C1156      O1161   1.372       .  S
C1157      C1158   1.409       .  A
C1157      H1162   1.084   1_554  S
C1158      C1159   1.411       .  A
C1159      C1160   1.408       .  A
C1159      O1163   1.371       .  S
C1160      H1164   1.083       .  S
O1161      H1166   0.992       .  S
O1163      H1167   0.992       .  S
C1169      C1170   1.397       .  A
C1169      C1174   1.394       .  A
C1169      H1179   1.083       .  S
C1170      C1175   1.482       .  S
C1170      C1171   1.413       .  A
C1171      C1172   1.405       .  A
C1171      O1176   1.371       .  S
C1172      C1173   1.401       .  A
C1172      H1177   1.083       .  S
C1173      C1174   1.415       .  A
C1174      O1178   1.376       .  S
C1175      C1180   1.411       .  A
C1175      C1184   1.403   1_554  A
O1176      H1192   0.991       .  S
O1178      H1189   0.992       .  S
C1180      C1181   1.398       .  A
C1180      O1185   1.373       .  S
C1181      C1182   1.403   1_554  A
C1181      H1186   1.084       .  S
C1182      C1183   1.410       .  A
C1183      C1184   1.397       .  A
C1183      O1187   1.372       .  S
C1184      H1188   1.083       .  S
O1185      H1190   0.992       .  S
O1187      H1191   0.992       .  S
C1193      C1194   1.407       .  A
C1193      C1198   1.409       .  A
C1193      H1203   1.083       .  S
C1194      C1199   1.490       .  S
C1194      C1195   1.407       .  A
C1195      C1196   1.395       .  A
C1195      O1200   1.372       .  S
C1196      C1197   1.405       .  A
C1196      H1201   1.080       .  S
C1197      C1198   1.414       .  A
C1198      O1202   1.371       .  S
C1199      C1204   1.409       .  A
C1199      C1208   1.406       .  A
O1200      H1216   0.992       .  S
O1202      H1213   0.992       .  S
C1204      C1205   1.403       .  A
C1204      O1209   1.371       .  S
C1205      C1206   1.406       .  A
C1205      H1210   1.083       .  S
C1206      C1207   1.409       .  A
C1207      C1208   1.400       .  A
C1207      O1211   1.372       .  S
C1208      H1212   1.084       .  S
O1209      H1214   0.992       .  S
O1211      H1215   0.992       .  S
C1217      C1218   1.400       .  A
C1217      C1222   1.398       .  A
C1217      H1227   1.083       .  S
C1218      C1223   1.480       .  S
C1218      C1219   1.410       .  A
C1219      C1220   1.402       .  A
C1219      O1224   1.372       .  S
C1220      C1221   1.405       .  A
C1220      H1225   1.084       .  S
C1221      C1222   1.411       .  A
C1222      O1226   1.372       .  S
C1223      C1228   1.408       .  A
C1223      C1232   1.400       .  A
O1224      H1240   0.992       .  S
O1226      H1237   0.991       .  S
C1228      C1229   1.401       .  A
C1228      O1233   1.372       .  S
C1229      C1230   1.406       .  A
C1229      H1234   1.083       .  S
C1230      C1231   1.413       .  A
C1231      C1232   1.398       .  A
C1231      O1235   1.372       .  S
C1232      H1236   1.084       .  S
O1233      H1238   0.992       .  S
O1235      H1239   0.992       .  S
C1241      C1242   1.401       .  A
C1241      C1246   1.396       .  A
C1241      H1251   1.084       .  S
C1242      C1247   1.491   1_565  S
C1242      C1243   1.413       .  A
C1243      C1244   1.409       .  A
C1243      O1248   1.373       .  S
C1244      C1245   1.405       .  A
C1244      H1249   1.083       .  S
C1245      C1246   1.416       .  A
C1246      O1250   1.372       .  S
C1247      C1252   1.408       .  A
C1247      C1256   1.408       .  A
O1248      H1264   0.992       .  S
O1250      H1261   0.992       .  S
C1252      C1253   1.398       .  A
C1252      O1257   1.371       .  S
C1253      C1254   1.409       .  A
C1253      H1258   1.083       .  S
C1254      C1255   1.411       .  A
C1255      C1256   1.405       .  A
C1255      O1259   1.371       .  S
C1256      H1260   1.084       .  S
O1257      H1262   0.992       .  S
O1259      H1263   0.992       .  S
C1265      C1266   1.405       .  A
C1265      C1270   1.401       .  A
C1265      H1275   1.084       .  S
C1266      C1271   1.473       .  S
C1266      C1267   1.404       .  A
C1267      C1268   1.390       .  A
C1267      O1272   1.374       .  S
C1268      C1269   1.405       .  A
C1268      H1273   1.084       .  S
C1269      C1270   1.410       .  A
C1270      O1274   1.371       .  S
C1271      C1276   1.409       .  A
C1271      C1280   1.402       .  A
O1272      H1288   0.992       .  S
O1274      H1285   0.992       .  S
C1276      C1277   1.393       .  A
C1276      O1281   1.372       .  S
C1277      C1278   1.401       .  A
C1277      H1282   1.084       .  S
C1278      C1279   1.409       .  A
C1279      C1280   1.398       .  A
C1279      O1283   1.372       .  S
C1280      H1284   1.084       .  S
O1281      H1286   0.992       .  S
O1283      H1287   0.991       .  S
C1289      C1290   1.403       .  A
C1289      C1294   1.404       .  A
C1289      H1299   1.084       .  S
C1290      C1295   1.494       .  S
C1290      C1291   1.411       .  A
C1291      C1292   1.406       .  A
C1291      O1296   1.371       .  S
C1292      C1293   1.408       .  A
C1292      H1297   1.083       .  S
C1293      C1294   1.417       .  A
C1294      O1298   1.372       .  S
C1295      C1300   1.411       .  A
C1295      C1304   1.402       .  A
O1296      H1312   0.992       .  S
O1298      H1309   0.992       .  S
C1300      C1301   1.409       .  A
C1300      O1305   1.371       .  S
C1301      C1302   1.410       .  A
C1301      H1306   1.083       .  S
C1302      C1303   1.417       .  A
C1303      C1304   1.401       .  A
C1303      O1307   1.372       .  S
C1304      H1308   1.084       .  S
O1305      H1310   0.992       .  S
O1307      H1311   0.992       .  S
C1313      C1314   1.400       .  A
C1313      C1318   1.398       .  A
C1313      H1323   1.084       .  S
C1314      C1319   1.491       .  S
C1314      C1315   1.413       .  A
C1315      C1316   1.406       .  A
C1315      O1320   1.373       .  S
C1316      C1317   1.404       .  A
C1316      H1321   1.083       .  S
C1317      C1318   1.419       .  A
C1318      O1322   1.372       .  S
C1319      C1324   1.409       .  A
C1319      C1328   1.408       .  A
O1320      H1336   0.992       .  S
O1322      H1333   0.992       .  S
C1324      C1325   1.400       .  A
C1324      O1329   1.371       .  S
C1325      C1326   1.404       .  A
C1325      H1330   1.084       .  S
C1326      C1327   1.406       .  A
C1327      C1328   1.403       .  A
C1327      O1331   1.371       .  S
C1328      H1332   1.083       .  S
O1329      H1334   0.991       .  S
O1331      H1335   0.991       .  S
C1337      C1338   1.399       .  A
C1337      C1342   1.399       .  A
C1337      H1347   1.084       .  S
C1338      C1343   1.476       .  S
C1338      C1339   1.406       .  A
C1339      C1340   1.400       .  A
C1339      O1344   1.372       .  S
C1340      C1341   1.407       .  A
C1340      H1345   1.083       .  S
C1341      C1342   1.417       .  A
C1342      O1346   1.372       .  S
C1343      C1348   1.409       .  A
C1343      C1352   1.395       .  A
O1344      H1360   0.992       .  S
O1346      H1357   0.992       .  S
C1348      C1349   1.405       .  A
C1348      O1353   1.371       .  S
C1349      C1350   1.406       .  A
C1349      H1354   1.083       .  S
C1350      C1351   1.418       .  A
C1351      C1352   1.394       .  A
C1351      O1355   1.372       .  S
C1352      H1356   1.084       .  S
O1353      H1358   0.992       .  S
O1355      H1359   0.992       .  S
C1361      C1362   1.407       .  A
C1361      C1366   1.409       .  A
C1361      H1371   1.083       .  S
C1362      C1367   1.489   1_565  S
C1362      C1363   1.406       .  A
C1363      C1364   1.395       .  A
C1363      O1368   1.372       .  S
C1364      C1365   1.408       .  A
C1364      H1369   1.083       .  S
C1365      C1366   1.414       .  A
C1366      O1370   1.371       .  S
C1367      C1372   1.407       .  A
C1367      C1376   1.405       .  A
O1368      H1384   0.992       .  S
O1370      H1381   0.992       .  S
C1372      C1373   1.402       .  A
C1372      O1377   1.371       .  S
C1373      C1374   1.409       .  A
C1373      H1378   1.083       .  S
C1374      C1375   1.413       .  A
C1375      C1376   1.402       .  A
C1375      O1379   1.371       .  S
C1376      H1380   1.084       .  S
O1377      H1382   0.992       .  S
O1379      H1383   0.992       .  S
C1385      C1386   1.407       .  A
C1385      C1390   1.406       .  A
C1385      H1395   1.083       .  S
C1386      C1391   1.487       .  S
C1386      C1387   1.405       .  A
C1387      C1388   1.400       .  A
C1387      O1392   1.372       .  S
C1388      C1389   1.409       .  A
C1388      H1393   1.084       .  S
C1389      C1390   1.409       .  A
C1390      O1394   1.371       .  S
C1391      C1396   1.406       .  A
C1391      C1400   1.404       .  A
O1392      H1408   0.992       .  S
O1394      H1405   0.992       .  S
C1396      C1397   1.402       .  A
C1396      O1401   1.372       .  S
C1397      C1398   1.410       .  A
C1397      H1402   1.083       .  S
C1398      C1399   1.416       .  A
C1399      C1400   1.405       .  A
C1399      O1403   1.371       .  S
C1400      H1404   1.084       .  S
O1401      H1406   0.992       .  S
O1403      H1407   0.992       .  S
C1409      C1410   1.406       .  A
C1409      C1414   1.399       .  A
C1409      H1419   1.083       .  S
C1410      C1415   1.489       .  S
C1410      C1411   1.414       .  A
C1411      C1412   1.400       .  A
C1411      O1416   1.372       .  S
C1412      C1413   1.400       .  A
C1412      H1417   1.084       .  S
C1413      C1414   1.404       .  A
C1414      O1418   1.372       .  S
C1415      C1420   1.416       .  A
C1415      C1424   1.400       .  A
O1416      H1432   0.992       .  S
O1418      H1429   0.992       .  S
C1420      C1421   1.406       .  A
C1420      O1425   1.372       .  S
C1421      C1422   1.403       .  A
C1421      H1426   1.083       .  S
C1422      C1423   1.411       .  A
C1423      C1424   1.394       .  A
C1423      O1427   1.373       .  S
C1424      H1428   1.083       .  S
O1425      H1430   0.992       .  S
O1427      H1431   0.992       .  S
C1433      C1434   1.402       .  A
C1433      C1438   1.402       .  A
C1433      H1443   1.084       .  S
C1434      C1439   1.490       .  S
C1434      C1435   1.409       .  A
C1435      C1436   1.404       .  A
C1435      O1440   1.371       .  S
C1436      C1437   1.408       .  A
C1436      H1441   1.083       .  S
C1437      C1438   1.418       .  A
C1438      O1442   1.371       .  S
C1439      C1444   1.410       .  A
C1439      C1448   1.404       .  A
O1440      H1456   0.992       .  S
O1442      H1453   0.992       .  S
C1444      C1445   1.403       .  A
C1444      O1449   1.372       .  S
C1445      C1446   1.406       .  A
C1445      H1450   1.083       .  S
C1446      C1447   1.415       .  A
C1447      C1448   1.402       .  A
C1447      O1451   1.372       .  S
C1448      H1452   1.084       .  S
O1449      H1454   0.992       .  S
O1451      H1455   0.992       .  S
C1457      C1458   1.394       .  A
C1457      C1462   1.384       .  A
C1457      H1467   1.084       .  S
C1458      C1463   1.472       .  S
C1458      C1459   1.411       .  A
C1459      C1460   1.406       .  A
C1459      O1464   1.371       .  S
C1460      C1461   1.405       .  A
C1460      H1465   1.083       .  S
C1461      C1462   1.413       .  A
C1462      O1466   1.373       .  S
C1463      C1468   1.408       .  A
C1463      C1472   1.400       .  A
O1464      H1480   0.992       .  S
O1466      H1477   0.992       .  S
C1468      C1469   1.394       .  A
C1468      O1473   1.372       .  S
C1469      C1470   1.403       .  A
C1469      H1474   1.084       .  S
C1470      C1471   1.413       .  A
C1471      C1472   1.396       .  A
C1471      O1475   1.372       .  S
C1472      H1476   1.084       .  S
O1473      H1478   0.992       .  S
O1475      H1479   0.992       .  S
C1481      C1482   1.409       .  A
C1481      C1486   1.410       .  A
C1481      H1491   1.082       .  S
C1482      C1487   1.506       .  S
C1482      C1483   1.413       .  A
C1483      C1484   1.401       .  A
C1483      O1488   1.372       .  S
C1484      C1485   1.408       .  A
C1484      H1489   1.083       .  S
C1485      C1486   1.414       .  A
C1486      O1490   1.372       .  S
C1487      C1492   1.415       .  A
C1487      C1496   1.406       .  A
O1488      H1504   0.992       .  S
O1490      H1501   0.991       .  S
C1492      C1493   1.413       .  A
C1492      O1497   1.372       .  S
C1493      C1494   1.406       .  A
C1493      H1498   1.083       .  S
C1494      C1495   1.413       .  A
C1495      C1496   1.402       .  A
C1495      O1499   1.371       .  S
C1496      H1500   1.083       .  S
O1497      H1502   0.992       .  S
O1499      H1503   0.992       .  S
